20
0 1 def2QZVP
C       0.682860001     2.933641003    -0.299854900
C       0.682860001     1.413421001    -0.397683900
C      -0.030294000     0.762385001     0.781690101
C       0.030294000    -0.762385001     0.781690101
C      -0.682860001    -1.413421001    -0.397683900
C      -0.682860001    -2.933641003    -0.299854900
H       1.184777001     3.263159003     0.609744101
H      -0.336592001     3.318399003    -0.272166900
H       1.189961001     3.392235003    -1.147315901
H       1.711326002     1.045692001    -0.438687901
H       0.208312000     1.111198001    -1.332102901
H      -1.076627001     1.082141001     0.789224101
H       0.412482000     1.139528001     1.707154102
H      -0.412482000    -1.139528001     1.707154102
H       1.076627001    -1.082141001     0.789224101
H      -0.208312000    -1.111198001    -1.332102901
H      -1.711326002    -1.045692001    -0.438687901
H      -1.189961001    -3.392235003    -1.147315901
H      -1.184777001    -3.263159003     0.609744101
H       0.336592001    -3.318399003    -0.272166900