20
0 1 def2QZVP
C       2.693847252    -0.455502101    -0.019060450
C       1.331899251    -0.018506100     0.504970550
C       0.480527250     0.628099901    -0.580649451
C      -0.849235751     1.184271901    -0.075186450
C      -1.754610752     0.154025900     0.598426550
C      -2.097373752    -1.025061101    -0.304096450
H       3.251546253     0.397075901    -0.406262450
H       2.581900253    -1.173109101    -0.831958451
H       3.294588254    -0.923543101     0.759236551
H       1.460984252     0.688973901     1.328091551
H       0.810055251    -0.882401101     0.920230551
H       0.303912250    -0.098193100    -1.377725451
H       1.051227251     1.441504901    -1.035860451
H      -1.389388751     1.630656902    -0.914111451
H      -0.646797751     1.995031902     0.629187550
H      -2.675866753     0.650690901     0.907552551
H      -1.285035751    -0.209471100     1.513907552
H      -2.813448753    -1.691972102     0.173557550
H      -1.213463751    -1.612502102    -0.548796451
H      -2.535265753    -0.680071101    -1.241453451