14
0 1 def2QZVP
C       0.590548000     1.437715001    -0.512024429
H      -0.344397000     1.997358002    -0.555829429
H       0.703646001     0.905509001    -1.454723430
H       1.405786001     2.155942002    -0.440925429
C       0.590548000     0.483546001     0.676488572
H       1.520768001    -0.089762000     0.686161572
H       0.575510001     1.063339001     1.600852573
C      -0.590548000    -0.483546001     0.676488572
H      -1.520768001     0.089762000     0.686161572
H      -0.575510001    -1.063339001     1.600852573
C      -0.590548000    -1.437715001    -0.512024429
H       0.344397000    -1.997358002    -0.555829429
H      -1.405786001    -2.155942002    -0.440925429
H      -0.703646001    -0.905509001    -1.454723430