17
0 1 def2QZVP
C       2.406082473    -0.141625471     0.108141941
C       0.963221471    -0.333516471    -0.341232059
C       0.036784471     0.731275530     0.233879941
C      -1.403814531     0.636051530    -0.261159059
C      -2.105144532    -0.650118471     0.160534941
H       3.061711473    -0.907664472    -0.302920059
H      -1.413270531     0.718718530    -1.350631060
H      -1.966819531     1.490789531     0.117547941
H       2.480724473    -0.185609471     1.194682942
H       2.784781474     0.829696530    -0.209614059
H       0.439428471     1.715689531    -0.017930059
H       0.047889471     0.664059530     1.325979942
H       0.908545471    -0.301180471    -1.432346060
H       0.620699471    -1.325143472    -0.042902059
H      -3.150132532    -0.647771471    -0.145525059
H      -1.635608531    -1.527207472    -0.280938059
H      -2.075078531    -0.766443471     1.244429943