20
0 1 def2QZVP
C      -0.488474000    -0.078965000     2.709806003
C       0.715151001     0.198421000     1.816343002
C       0.557995001    -0.337484000     0.394779001
C      -0.557995001     0.337484000    -0.394779001
C      -0.715151001    -0.198421000    -1.816343002
C       0.488474000     0.078965000    -2.709806003
H      -0.708012001    -1.146816001     2.737488003
H      -1.380522001     0.434747000     2.356559002
H      -0.303773000     0.249678000     3.731408004
H       1.603000002    -0.248732000     2.266726002
H       0.900418001     1.274457001     1.773291002
H       0.365775000    -1.414388001     0.435571000
H       1.504136001    -0.211270000    -0.133700000
H      -0.365775000     1.414388001    -0.435571000
H      -1.504136001     0.211270000     0.133700000
H      -1.603000002     0.248732000    -2.266726002
H      -0.900418001    -1.274457001    -1.773291002
H       0.303773000    -0.249678000    -3.731408004
H       1.380522001    -0.434747000    -2.356559002
H       0.708012001     1.146816001    -2.737488003