20
0 1 def2QZVP
C      -1.826341102     1.235149351     0.022487650
C      -2.033907102    -0.255798650    -0.214080350
C      -0.898990101    -1.141213651     0.298299650
C       0.467521901    -0.841661651    -0.331734350
C       1.349270901     0.089243350     0.495420650
C       2.668156903     0.400535350    -0.199287350
H      -0.960573101     1.608871352    -0.522195350
H      -1.671314102     1.444790351     1.081131651
H      -2.692949103     1.806060352    -0.308014350
H      -2.159512102    -0.435468651    -1.284534351
H      -2.966034103    -0.567453650     0.260978650
H      -1.169646101    -2.180627652     0.106404650
H      -0.823047101    -1.041503651     1.384923651
H       0.322073900    -0.413355651    -1.328459351
H       1.016194901    -1.773853652    -0.483186350
H       1.543340902    -0.382509650     1.461400652
H       0.817397901     1.016274351     0.709742651
H       3.302002903     1.044686351     0.408140650
H       2.494505903     0.903132351    -1.150851351
H       3.221847903    -0.515296651    -0.406587350