17
0 1 def2QZVP
C       0.000000000     1.833709002    -0.650028118
C       0.835431001     0.977116001     0.293544883
C       0.000000000     0.000000000     1.118853883
C      -0.835431001    -0.977116001     0.293544883
C       0.000000000    -1.833709002    -0.650028118
H       0.613884001     2.577986002    -1.154810119
H      -1.588542001    -0.430944000    -0.276794118
H      -1.386124001    -1.625973002     0.976509883
H      -0.782410001     2.361064002    -0.103148118
H      -0.482803000     1.230780001    -1.417723119
H      -0.663702000     0.571147000     1.773021884
H       0.663702000    -0.571147000     1.773021884
H       1.588542001     0.430944000    -0.276794118
H       1.386124001     1.625973002     0.976509883
H      -0.613884001    -2.577986002    -1.154810119
H       0.482803000    -1.230780001    -1.417723119
H       0.782410001    -2.361064002    -0.103148118