17
0 1 def2QZVP
C       0.000000000     2.532996003     0.301659000
C       0.000000000     1.271828001    -0.551882001
C       0.000000000     0.000000000     0.285280000
C       0.000000000    -1.271828001    -0.551882001
C       0.000000000    -2.532996003     0.301659000
H       0.000000000     3.433871004    -0.309890000
H       0.874443001    -1.269244001    -1.206537001
H      -0.874443001    -1.269244001    -1.206537001
H       0.879627001     2.565141003     0.944372001
H      -0.879627001     2.565141003     0.944372001
H      -0.875133001     0.000000000     0.941803001
H       0.875133001     0.000000000     0.941803001
H      -0.874443001     1.269244001    -1.206537001
H       0.874443001     1.269244001    -1.206537001
H       0.000000000    -3.433871004    -0.309890000
H       0.879627001    -2.565141003     0.944372001
H      -0.879627001    -2.565141003     0.944372001