20
0 1 def2QZVP
C       2.545309802     0.854070251    -0.215731650
C       2.060644802    -0.472286750     0.358375350
C       0.695028801    -0.900077751    -0.172946650
C      -0.440237200     0.044454250     0.202599350
C      -1.803397202    -0.458847751    -0.254745650
C      -2.932110203     0.494290250     0.115553350
H       1.898811802     1.679011251     0.077902350
H       2.563893802     0.817270251    -1.305507651
H       3.552160804     1.087419251     0.127058350
H       2.014753802    -0.405262751     1.447989351
H       2.790930803    -1.249896751     0.127970350
H       0.459061800    -1.897730752     0.205754350
H       0.744131801    -0.987277751    -1.262453651
H      -0.266121200     1.032159251    -0.230019650
H      -0.451659200     0.179927250     1.288649351
H      -1.989298202    -1.440655751     0.186474350
H      -1.784941202    -0.606199751    -1.337046651
H      -3.899992204     0.121028250    -0.215433650
H      -2.777334203     1.472434251    -0.339594650
H      -2.979637203     0.636171250     1.195153351