20
0 1 def2QZVP
C       0.033781000     2.513165003     0.683113801
C       0.698981001     1.828241002    -0.505244201
C       0.698981001     0.305138000    -0.400831200
C      -0.698981001    -0.305138000    -0.400831200
C      -0.698981001    -1.828241002    -0.505244201
C      -0.033781000    -2.513165003     0.683113801
H       0.500381001     2.199752002     1.617725802
H      -1.025832001     2.271578002     0.743461801
H       0.121052000     3.596338004     0.613605800
H       1.728887001     2.179156002    -0.590370201
H       0.194077000     2.123459002    -1.428179201
H       1.233058001     0.014418000     0.506820801
H       1.261684001    -0.113101000    -1.240103201
H      -1.261684001     0.113101000    -1.240103201
H      -1.233058001    -0.014418000     0.506820801
H      -0.194077000    -2.123459002    -1.428179201
H      -1.728887001    -2.179156002    -0.590370201
H      -0.121052000    -3.596338004     0.613605800
H      -0.500381001    -2.199752002     1.617725802
H       1.025832001    -2.271578002     0.743461801