20
0 1 def2QZVP
C      -0.760592001     2.191757002    -0.488283800
C      -1.320800001     0.787237001    -0.297495800
C      -0.760592001     0.078283000     0.933961201
C       0.760592001    -0.078283000     0.933961201
C       1.320800001    -0.787237001    -0.297495800
C       0.760592001    -2.191757002    -0.488283800
H       0.310291000     2.172925002    -0.685167801
H      -0.922415001     2.796155003     0.404955200
H      -1.240282001     2.697452002    -1.324903801
H      -1.123866001     0.190587000    -1.190390801
H      -2.406735003     0.842537001    -0.203980800
H      -1.228183001    -0.903819001     1.025641201
H      -1.053544001     0.638372001     1.825665202
H       1.053544001    -0.638372001     1.825665202
H       1.228183001     0.903819001     1.025641201
H       2.406735003    -0.842537001    -0.203980800
H       1.123866001    -0.190587000    -1.190390801
H       1.240282001    -2.697452002    -1.324903801
H      -0.310291000    -2.172925002    -0.685167801
H       0.922415001    -2.796155003     0.404955200