20
0 1 def2QZVP
C      -1.976582252     1.062084001    -0.047149700
C      -1.924255252    -0.458773000    -0.127926700
C      -0.522089251    -1.027426001    -0.340709700
C       0.464745750    -0.679032001     0.783379301
C       1.368915751     0.517724000     0.482695300
C       2.437084753     0.194333000    -0.555654700
H      -1.554005252     1.514598001    -0.944747701
H      -1.418017252     1.436238002     0.809453301
H      -3.003099253     1.412289001     0.051698300
H      -2.569966253    -0.796555001    -0.940764701
H      -2.337635252    -0.882840001     0.790390301
H      -0.132756250    -0.671002000    -1.297796701
H      -0.605590250    -2.111180002    -0.434119701
H       1.106838751    -1.538054002     0.991013301
H      -0.099322250    -0.494827001     1.701359301
H       1.856532752     0.839722001     1.404712302
H       0.767533751     1.359941001     0.139127300
H       3.063628753     1.060076001    -0.764858701
H       1.994928752    -0.127646000    -1.497601702
H       3.083109753    -0.609670001    -0.202498700