20
0 1 def2QZVP
C       2.711792853    -0.434757050     0.121816750
C       1.212637851    -0.405737050    -0.148216250
C       0.632728851     0.992510951     0.026909750
C      -0.845938151     1.137670951    -0.328367250
C      -1.790860152     0.254887950     0.497632750
C      -2.117593152    -1.082836051    -0.159469250
H       2.927379853    -0.097852050     1.135842751
H       3.241440853     0.225411950    -0.564844251
H       3.122956853    -1.436558051     0.008005750
H       0.711426851    -1.101080051     0.526637751
H       1.012630851    -0.756602051    -1.163582251
H       1.213482851     1.688332952    -0.584753251
H       0.777795851     1.304674951     1.065544751
H      -0.988103151     0.919491951    -1.390698251
H      -1.120033151     2.185365952    -0.193822250
H      -2.726777152     0.788876951     0.667179751
H      -1.354544151     0.088732950     1.485949751
H      -2.781705153    -1.679092052     0.465246750
H      -1.222406151    -1.669839052    -0.351826250
H      -2.616313153    -0.921604051    -1.115187251