14
0 1 def2QZVP
C       0.623249223     0.440758157     0.000000000
C      -0.623249223    -0.440758157     0.000000000
C       1.919587686    -0.364720130     0.000000000
C      -1.919587686     0.364720130     0.000000000
H       0.597629213     1.098582392     0.877938456
H       0.597629213     1.098582392    -0.877938456
H      -0.597629213    -1.098582392     0.877938456
H      -0.597629213    -1.098582392    -0.877938456
H       2.797386999     0.288091103     0.000000000
H       1.978787707    -1.007283360     0.884014459
H       1.978787707    -1.007283360    -0.884014459
H      -2.797386999    -0.288091103     0.000000000
H      -1.978787707     1.007283360     0.884014459
H      -1.978787707     1.007283360    -0.884014459