8
0 1 def2QZVP
C       0.000000000     0.000000000     0.762988243
C       0.000000000     0.000000000    -0.762988243
H      -0.882809100     0.509690071     1.158040198
H       0.000000000    -1.019380143     1.158040198
H       0.882809100     0.509690071     1.158040198
H       0.882809100    -0.509690071    -1.158040198
H      -0.882809100    -0.509690071    -1.158040198
H       0.000000000     1.019380143    -1.158040198