20
0 1 def2QZVP
C       0.645551231    -0.407563146     0.000000000
C      -0.645551231     0.407563146     0.000000000
C       1.905244680     0.455548163     0.000000000
C      -1.905244680    -0.455548163     0.000000000
C       3.188872139    -0.370459132     0.000000000
C      -3.188872139     0.370459132     0.000000000
H       0.658791235    -1.066678381     0.878796114
H       0.658791235    -1.066678381    -0.878796114
H      -0.658791235     1.066678381     0.878796114
H      -0.658791235     1.066678381    -0.878796114
H       1.890409675     1.113462398    -0.878008514
H       1.890409675     1.113462398     0.878008514
H      -1.890409675    -1.113462398    -0.878008514
H      -1.890409675    -1.113462398     0.878008514
H       4.076897456     0.268530096     0.000000000
H       3.237787156    -1.013830362    -0.884048516
H       3.237787156    -1.013830362     0.884048516
H      -4.076897456    -0.268530096     0.000000000
H      -3.237787156     1.013830362    -0.884048516
H      -3.237787156     1.013830362     0.884048516