23
0 1 def2QZVP
C       0.000000000     0.000000000     0.516829471
C       0.000000000     1.275258455    -0.323286829
C       0.000000000    -1.275258455    -0.323286829
C       0.000000000     2.551379911     0.515349471
C       0.000000000    -2.551379911     0.515349471
C       0.000000000     3.818785364    -0.335355833
C       0.000000000    -3.818785364    -0.335355833
H      -0.878864725     0.000000000     1.175864880
H       0.878864725     0.000000000     1.175864880
H      -0.878790693     1.275653456    -0.982525891
H       0.878790693     1.275653456    -0.982525891
H      -0.878790693    -1.275653456    -0.982525891
H       0.878790693    -1.275653456    -0.982525891
H      -0.878024723     2.549276910     1.173420879
H       0.878024723     2.549276910     1.173420879
H      -0.878024723    -2.549276910     1.173420879
H       0.878024723    -2.549276910     1.173420879
H      -0.884050698     3.855216377    -0.979549895
H       0.884050698     3.855216377    -0.979549895
H       0.000000000     4.719020685     0.286323389
H      -0.884050698    -3.855216377    -0.979549895
H       0.884050698    -3.855216377    -0.979549895
H       0.000000000    -4.719020685     0.286323389