11
0 1 def2QZVP
C       0.000000000     0.000000000     0.619074355
C       0.000000000     1.268231453    -0.229766916
C       0.000000000    -1.268231453    -0.229766916
H       0.877100523     0.000000000     1.276339497
H      -0.877100523     0.000000000     1.276339497
H       0.000000000     2.167883774     0.392479322
H      -0.883888921     1.304852466    -0.874294541
H       0.883888921     1.304852466    -0.874294541
H       0.000000000    -2.167883774     0.392479322
H      -0.883888921    -1.304852466    -0.874294541
H       0.883888921    -1.304852466    -0.874294541