16
0 1 def2QZVP
C       0.684160244     0.337751121    -1.911482683
C      -0.684160244    -0.337751121    -1.911482683
H       1.489645532    -0.401434143    -1.911482683
H       0.812773290     0.969660346    -2.794291998
H       0.812773290     0.969660346    -1.028673367
H      -1.489645532     0.401434143    -1.911482683
H      -0.812773290    -0.969660346    -2.794291998
H      -0.812773290    -0.969660346    -1.028673367
C       0.684160244    -0.337751121     1.911482683
C      -0.684160244     0.337751121     1.911482683
H       1.489645532     0.401434143     1.911482683
H       0.812773290    -0.969660346     2.794291998
H       0.812773290    -0.969660346     1.028673367
H      -1.489645532    -0.401434143     1.911482683
H      -0.812773290     0.969660346     2.794291998
H      -0.812773290     0.969660346     1.028673367