34
0 1 def2QZVP
C      -1.951743697     0.212836076     0.000000000
C      -1.951743697    -0.625637223     1.275957456
C      -1.951743697    -0.625637223    -1.275957456
C      -1.951743697     0.224948080     2.543413908
C      -1.951743697     0.224948080    -2.543413908
H      -2.830473011     0.872296312     0.000000000
H      -1.073014383     0.872296312     0.000000000
H      -2.829754011    -1.283735459     1.273933455
H      -1.073733383    -1.283735459     1.273933455
H      -2.829754011    -1.283735459    -1.273933455
H      -1.073733383    -1.283735459    -1.273933455
H      -2.835769013     0.869163310     2.579898921
H      -1.067718381     0.869163310     2.579898921
H      -1.951743697    -0.396732142     3.443617230
H      -2.835769013     0.869163310    -2.579898921
H      -1.067718381     0.869163310    -2.579898921
H      -1.951743697    -0.396732142    -3.443617230
C       1.951743697    -0.212836076     0.000000000
C       1.951743697     0.625637223    -1.275957456
C       1.951743697     0.625637223     1.275957456
C       1.951743697    -0.224948080    -2.543413908
C       1.951743697    -0.224948080     2.543413908
H       1.073014383    -0.872296312     0.000000000
H       2.830473011    -0.872296312     0.000000000
H       1.073733383     1.283735459    -1.273933455
H       2.829754011     1.283735459    -1.273933455
H       1.073733383     1.283735459     1.273933455
H       2.829754011     1.283735459     1.273933455
H       1.067718381    -0.869163310    -2.579898921
H       2.835769013    -0.869163310    -2.579898921
H       1.951743697     0.396732142    -3.443617230
H       1.067718381    -0.869163310     2.579898921
H       2.835769013    -0.869163310     2.579898921
H       1.951743697     0.396732142     3.443617230