17
0 1 def2QZVP
C       0.000000000     0.000000000     0.289053868
C       0.000000000     1.275957456    -0.549419431
C       0.000000000    -1.275957456    -0.549419431
C       0.000000000     2.543413908     0.301165872
C       0.000000000    -2.543413908     0.301165872
H       0.878729314     0.000000000     0.948514103
H      -0.878729314     0.000000000     0.948514103
H       0.878010314     1.273933455    -1.207517667
H      -0.878010314     1.273933455    -1.207517667
H       0.878010314    -1.273933455    -1.207517667
H      -0.878010314    -1.273933455    -1.207517667
H       0.884025316     2.579898921     0.945381102
H      -0.884025316     2.579898921     0.945381102
H       0.000000000     3.443617230    -0.320514350
H       0.884025316    -2.579898921     0.945381102
H      -0.884025316    -2.579898921     0.945381102
H       0.000000000    -3.443617230    -0.320514350