6
-1 1 aug'-def2QZVP
S       0.771611860     1.326268760    -0.938716610
H      -0.190751290     1.842740600    -1.717475190
N      -1.149550580    -0.039944330     1.597735910
H      -0.799389730    -0.991974540     1.588838280
H      -0.713147800     0.397697930     2.402144950
H      -0.700672530     0.408098590     0.784634180