6
-1 1 aug'-def2QZVP
O       1.370885890    -0.639512140     0.009559200
O       0.926847160     1.606759650    -0.181823500
C       0.621936180     0.362899450    -0.061809300
H      -0.487817720     0.181463820    -0.017418730
F       3.222183260     2.482673780    -0.316454190
H       2.318629740     2.049609900    -0.255572960