8
0 1 def2QZVP
AL      0.000000000     0.000000000    -1.306564000
AL      0.000000000     0.000000000     1.306564000
H       0.000000000     1.145493000     0.000000000
H       0.000000000    -1.145493000     0.000000000
H       1.410721000     0.000000000    -1.996773000
H      -1.410721000     0.000000000    -1.996773000
H      -1.410721000     0.000000000     1.996773000
H       1.410721000     0.000000000     1.996773000