8
0 1 def2QZVP
AL      0.000000000     0.000000000    -1.376927000
AL      0.000000000     0.000000000     1.376927000
F       0.000000000     1.168038000     0.000000000
F       0.000000000    -1.168038000     0.000000000
F       1.441517000     0.000000000    -2.146046000
F      -1.441517000     0.000000000    -2.146046000
F      -1.441517000     0.000000000     2.146046000
F       1.441517000     0.000000000     2.146046000