8
0 1 def2QZVP
AL      0.000000000     0.000000000    -1.595439000
AL      0.000000000     0.000000000     1.595439000
CL      0.000000000     1.623079000     0.000000000
CL      0.000000000    -1.623079000     0.000000000
CL      1.821228000     0.000000000    -2.604294000
CL     -1.821228000     0.000000000    -2.604294000
CL     -1.821228000     0.000000000     2.604294000
CL      1.821228000     0.000000000     2.604294000