7
0 1 def2QZVP
C       0.142330500    -0.104724400     0.735494800
Li     -0.429584000    -0.947243800    -1.095303500
Li      0.041782400     1.215099100    -0.903437900
H      -0.451237500     0.307194500    -2.312780300
H       0.442850000     0.801310000     1.286297200
H       0.962033800    -0.801145300     0.961598600
H      -0.708175200    -0.470490000     1.328131100