12
0 1 def2QZVP
C      -2.267204200    -1.233645600    -0.002168700
H      -2.807399300    -1.522867000     0.895229400
C      -1.866433900     0.096305900     0.001832900
H      -2.795343400    -1.521041100    -0.907326500
N      -1.416489200     1.175251400     0.006055000
Li     -0.286135900    -1.972686700     0.006377900
C       2.267204200     1.233645600    -0.002168700
H       2.807399300     1.522867000     0.895229400
C       1.866433900    -0.096305900     0.001832900
H       2.795343400     1.521041100    -0.907326500
N       1.416489200    -1.175251400     0.006055000
Li      0.286135900     1.972686700     0.006377900