7
0 1 def2QZVP
C       0.000000000     0.000000000     0.117986100
Li     -1.444408900     1.444408900     0.100244700
Li     -1.444408900    -1.444408900     0.100244700
Li      1.444408900    -1.444408900     0.100244700
Li      1.444408900     1.444408900     0.100244700
Li      0.000000000     0.000000000    -1.766221800
H       0.000000000     0.000000000     1.247256900