6
0 1 def2QZVP
C      -0.087302100    -0.575625900     0.427279400
H       0.723908400    -0.979872600     1.020245200
C       0.002304100     0.758543800     0.082680300
H      -1.067966800    -0.940913100     0.706550700
Li      0.289333100     0.016486100    -1.653917200
N       0.139723300     1.721381800    -0.582838300