23
0 1 def2QZVP
N      -0.932385276    -0.680155128     0.068546191
C       0.123603141     0.264305839    -0.214738271
C       1.428965480    -0.491129960     0.029105022
O       1.448681767    -1.580087857     0.595606937
C       0.043735589     1.547513075     0.633460809
O      -0.793614163     2.520774960     0.064312255
H      -0.609861041    -1.565601883     0.434204992
H       0.076546700     0.574006286    -1.262986547
H      -0.268686107     1.256213340     1.642828069
H       1.035571960     1.992724277     0.708889876
H      -1.606250440     2.048189745    -0.196060602
N       2.535288462     0.146006701    -0.412611531
H       2.417700966     1.016073206    -0.902183002
C       3.865336631    -0.404029287    -0.250180965
H       4.277352204    -0.731907152    -1.202909204
H       4.530354838     0.333319997     0.192843682
H       3.784686783    -1.259961797     0.411529970
C      -2.240583917    -0.444326876    -0.154054139
O      -2.669349290     0.637949615    -0.563638944
C      -3.165828639    -1.603882449     0.110527064
H      -3.570761914    -1.944043809    -0.840415759
H      -3.996135574    -1.253395280     0.717160087
H      -2.673995162    -2.436338563     0.606356008