29
0 1 def2QZVP
N      -1.280296721    -0.990401172    -0.605460693
C      -0.058147160    -0.300944918    -0.228192057
C      -0.297969600     1.165318707     0.117769587
O       0.497913847     1.786579362     0.823698119
C       0.941873981    -0.420713932    -1.381677627
C       2.307712787     0.198281104    -1.087751961
C       2.966536015    -0.520513524     0.076058785
O       3.512411761    -1.606973852    -0.070286837
H      -1.242433318    -1.580837489    -1.421190152
H       0.351707871    -0.752266433     0.676422019
H       1.086372872    -1.482676267    -1.593806330
H       0.508155156     0.045834267    -2.269230980
H       2.949080343     0.054839479    -1.954697707
H       2.211734830     1.263559658    -0.891194907
C      -2.199764083    -1.307241287     0.366838488
O      -2.142029480    -0.811193524     1.480840804
N      -1.370236946     1.733137826    -0.466249995
H      -2.025982055     1.104661893    -0.899021637
C      -1.759027345     3.095364929    -0.168878130
H      -2.253532108     3.531484239    -1.032323286
H      -2.425793514     3.141293774     0.691705977
H      -0.861304774     3.660698882     0.059353996
C      -3.269818218    -2.286638777    -0.046825306
H      -3.021025396    -3.264406456     0.362815580
H      -3.368777916    -2.372982592    -1.126322449
H      -4.215854737    -1.975057629     0.385316775
N       2.881716874     0.132421254     1.263816049
H       3.178882722    -0.373383704     2.081039697
H       2.191813315     0.867323182     1.360574177