19
0 1 def2QZVP
C       0.212149161    -1.976257286    -2.007268296
H       0.040079380    -1.245123889    -2.795151879
H      -0.181529722    -2.921887464    -2.375011838
N       1.629677954    -2.055356923    -1.744379705
H       2.237900201    -1.342498249    -2.115595684
C      -0.671211668    -1.566557878    -0.829959056
O      -1.889489941    -1.602847094    -0.938700791
C       2.297258407    -3.144444104    -1.235784518
O       3.514597627    -3.148995112    -1.140417637
N      -0.006037259    -1.177744482     0.280966465
H       0.998664286    -1.166374295     0.232699492
C      -0.695219616    -0.731266155     1.471524233
H      -0.596358506     0.344376340     1.609375099
H      -1.746325339    -0.973460541     1.348539616
H      -0.306473837    -1.239647753     2.350661886
C       1.431691100    -4.301912849    -0.804016882
H       0.608635286    -3.975561928    -0.170886078
H       2.056239554    -5.006157045    -0.266325916
H       1.006755929    -4.799885295    -1.675171508