23
0 1 def2QZVP
N       0.498019804     0.715345804     0.478227774
C       0.199036859    -0.517100666    -0.231646492
C      -1.221382923    -1.000578863     0.111022289
O      -1.421532771    -1.967870689     0.839322091
C       1.190186943    -1.606836931     0.137681410
S       2.933445066    -1.119222848    -0.017407638
H       1.239722109     0.683702037     1.159191209
H       0.247589174    -0.301538375    -1.302263821
H       0.988793786    -2.492239051    -0.458292683
H       1.049133418    -1.890125673     1.179599216
C       0.140973234     1.924578580    -0.019978501
O      -0.607878049     2.041144859    -0.991262237
N      -2.194392207    -0.266912434    -0.464622921
C      -3.584852073    -0.517245214    -0.150504121
H      -4.208570170    -0.045362687    -0.903660091
H      -3.763032493    -1.588666133    -0.151632431
H      -3.855606910    -0.130583559     0.832292136
H      -1.908464492     0.598263373    -0.909562446
C       0.714396283     3.122458836     0.690529559
H       1.369757105     3.649309388     0.000184081
H       1.271890596     2.861601087     1.586192697
H      -0.099021536     3.794120678     0.951760768
H       2.875887248    -0.754704520    -1.303602847