33
0 1 def2QZVP
N       0.926913532     0.612426068     1.038916969
C       1.147215235    -0.738640618     0.531230739
C       2.615281101    -1.121314277     0.323683796
O       3.040214620    -2.179691041     0.778793934
C       0.326024827    -1.034870948    -0.737334676
C      -1.123086098    -0.711336450    -0.525188041
C      -1.675761105     0.473738372    -1.021082929
C      -1.941811582    -1.555417427     0.228813813
C      -3.002771833     0.810509096    -0.773100910
C      -3.271124787    -1.229176499     0.484073565
C      -3.804176091    -0.040836303    -0.014776609
O      -5.100001582     0.337703923     0.200470984
H       0.490289627     0.679497692     1.941959616
H       0.803425469    -1.406467025     1.318490371
H       0.723260558    -0.460732325    -1.571618975
H       0.462524512    -2.094735012    -0.959545706
H      -1.058047830     1.136609743    -1.614427267
H      -1.541641774    -2.485695109     0.614978759
H      -3.432960076     1.721872811    -1.164856542
H      -3.894414116    -1.900059542     1.063763404
H      -5.531849544    -0.352253559     0.714745295
N       3.334626635    -0.253772052    -0.417596543
H       2.854890718     0.569941382    -0.765434716
C       4.723180977    -0.497641480    -0.739212689
H       4.967841752    -1.503334909    -0.411613483
H       4.885047734    -0.418326025    -1.812270491
H       5.378387990     0.209129599    -0.231485056
C       0.978958458     1.752207151     0.310302833
O       1.449177951     1.801949374    -0.828747699
C       0.389363042     2.967495592     0.978690775
H       0.435711293     2.911266877     2.063974905
H      -0.655970764     3.046398317     0.680084892
H       0.915649148     3.851039603     0.632435682