36
0 1 def2QZVP
N      -1.121060455     0.670592307     0.141971228
C      -1.530247920    -0.689592478    -0.158868346
C      -2.876417073    -1.063488557     0.452670764
O      -3.226911642    -2.235484491     0.530181519
C      -0.453435957    -1.715545331     0.236467761
H      -0.741361851     0.821320488     1.065652263
H      -1.651682460    -0.716424207    -1.243593355
H      -0.397976016    -1.776137145     1.326352438
H      -0.774213769    -2.694792990    -0.113463293
C      -0.535128717     1.441266016    -0.847594278
O      -0.655673592     1.187615886    -2.035153543
N      -3.625127819    -0.016482898     0.874342238
H      -3.258551974     0.901357171     0.685986404
C      -4.971249965    -0.191821451     1.371207483
H      -5.104664227    -1.248395702     1.582042940
H      -5.119097074     0.380635986     2.284088860
H      -5.713535649     0.114854524     0.634995444
C       0.246442594     2.626123125    -0.338771430
H       1.294070332     2.334235436    -0.250636422
H      -0.096943330     2.962879500     0.637191887
H       0.169249179     3.434569931    -1.059414104
C       0.863350626    -1.310373245    -0.331043546
C       1.310334165    -1.523061979    -1.617716205
C       1.810116918    -0.433225570     0.279387679
H       0.865832167    -2.101889627    -2.410722993
C       2.806000262    -0.135413585    -0.692225904
C       1.915155580     0.145162341     1.556620449
H       2.979463833    -0.794391313    -2.696062809
C       2.968254976     1.007077323     1.818992965
H       1.194697632    -0.089346295     2.331685709
N       2.476223513    -0.827366350    -1.827061883
C       3.869526115     0.731423600    -0.429391806
C       3.931556263     1.303694860     0.833214761
H       4.616606749     0.954635277    -1.180144782
H       4.740021082     1.982234718     1.068690522
H       3.060486504     1.458314725     2.797740386