29
0 1 def2QZVP
N      -1.685429323    -0.525955015    -0.011960087
C      -0.493515287     0.247232384    -0.254116597
C      -0.913118236     1.688291491    -0.518798810
O      -2.084169025     1.996038894    -0.730294767
C       0.370406629    -0.296249433    -1.408779554
C       1.453897643    -1.235499136    -0.893034961
C       2.262675156    -0.493061025     0.149977987
O       2.635500764     0.666882461    -0.022548893
H      -2.548057561    -0.063785020    -0.265258632
H       0.095087124     0.237753549     0.665002650
H      -0.280345597    -0.802022164    -2.120943581
H       0.852029506     0.532456015    -1.924279550
H       2.129684590    -1.519744845    -1.700967157
H       1.019547634    -2.136857598    -0.469057528
C      -1.676594119    -1.591246845     0.822986602
O      -0.638767266    -2.049142953     1.303837485
N       0.124117558     2.550210299    -0.498048703
H       1.048562694     2.168134155    -0.339902545
C      -0.035627110     3.959471119    -0.783538629
H       0.407374006     4.560362294     0.007365715
H       0.426509282     4.226325342    -1.732829455
H      -1.099873176     4.165483532    -0.838050003
C      -3.024396825    -2.199907799     1.118196484
H      -3.842657536    -1.687052117     0.619857486
H      -3.183893332    -2.177754184     2.193692920
H      -3.009958378    -3.242243089     0.808963981
N       2.539826366    -1.196164246     1.275197513
H       2.962431471    -0.686844380     2.033564570
H       1.935081348    -1.966214687     1.507996058