23
0 1 def2QZVP
N       1.063127636     0.577589991    -0.080257147
C      -0.147046020     0.677715940     0.714681741
C      -1.265078304    -0.167878120     0.094051347
O      -2.217828379     0.349269276    -0.496652579
C      -0.562421299     2.138435704     0.765758368
O      -0.700304277     2.661282688    -0.544041627
H       1.183386646     1.278883824    -0.794477096
H       0.077153063     0.300493590     1.713480753
H      -1.488607867     2.230004900     1.335722552
H       0.213450146     2.719252761     1.261146481
H      -1.432727643     2.145311341    -0.916795410
N      -1.092838668    -1.492506933     0.249772425
H      -0.205870468    -1.784918215     0.646888161
C      -1.981998067    -2.457710246    -0.360913652
H      -1.551950780    -2.877338542    -1.269797468
H      -2.190659881    -3.264247587     0.337062481
H      -2.906635436    -1.948997017    -0.613813122
C       1.923464890    -0.458699217     0.034605328
O       1.723943047    -1.396675314     0.810209697
C       3.156482803    -0.387943120    -0.827779802
H       4.025810128    -0.310330322    -0.178499474
H       3.148170782     0.453717040    -1.515221954
H       3.243890950    -1.315819423    -1.386914001