32
0 1 def2QZVP
N       0.533592456     0.764000229    -0.228215805
C       0.814387798    -0.636601333     0.049048851
C       2.272139109    -0.969390348    -0.300380710
O       2.574203045    -1.636759808    -1.284277956
C      -0.144263390    -1.522039671    -0.739431983
C      -1.573753464    -1.129625895    -0.501306990
C      -2.316164479    -0.490220648    -1.497522780
C      -2.175942977    -1.348158921     0.741994606
C      -3.625776833    -0.073210708    -1.261213424
C      -3.482926959    -0.935719048     0.984155811
C      -4.210741256    -0.292863655    -0.016984780
H      -0.042697893     0.982558109    -1.024163707
H       0.670243035    -0.777888644     1.122483848
H       0.036239321    -2.555865623    -0.444911330
H       0.110262338    -1.454232947    -1.797288444
H      -1.869509608    -0.335750209    -2.473114288
H      -1.617144549    -1.848681648     1.523775659
H      -4.186452663     0.415508960    -2.046539718
H      -3.934112372    -1.116324303     1.950408751
H      -5.226417449     0.027085055     0.170358420
N       3.158462528    -0.455279917     0.579949383
H       2.790291508     0.198013971     1.262486776
C       4.583213740    -0.558120694     0.352195232
H       5.103746160    -0.580995095     1.305606789
H       4.777869907    -1.478392447    -0.189827356
H       4.963267461     0.275289464    -0.239617099
C       0.785192568     1.738665616     0.677997944
O       1.406840840     1.523294877     1.719619551
C       0.254777011     3.106677318     0.335613165
H      -0.471622546     3.390473499     1.093947216
H      -0.215267840     3.150741754    -0.643553485
H       1.074122455     3.819748710     0.377760854