31
0 1 def2QZVP
N      -0.187046446     1.110240744     0.397862648
C       0.198943212    -0.159461333    -0.202510154
C      -0.799443781    -1.218074597     0.278932855
O      -0.587778965    -1.930537685     1.255233085
C       1.638940216    -0.528468936     0.132993611
C       2.596323305     0.594154315    -0.268734499
C       1.991649478    -1.838507018    -0.564941356
C       4.040982391     0.336476360     0.143566407
H       0.141552077     1.317566169     1.326467138
H       0.094895487    -0.027562582    -1.281292057
H       1.695612083    -0.686901558     1.214628741
H       2.263835900     1.533419660     0.174569271
H       2.537927638     0.730853705    -1.352699072
H       1.298903167    -2.628556728    -0.285794418
H       1.959117442    -1.706862801    -1.648594316
H       2.992985234    -2.168653527    -0.297855248
H       4.106395124     0.136902629     1.213579019
H       4.666371513     1.200878960    -0.073515804
H       4.466589413    -0.516237848    -0.380938169
N      -1.938323156    -1.249819973    -0.451943347
H      -2.089922809    -0.466225012    -1.074269748
C      -3.062990218    -2.054334695    -0.022601487
H      -3.716971143    -2.237707115    -0.870027756
H      -2.688099199    -2.999629357     0.357533953
H      -3.632595230    -1.570740748     0.771890961
C      -1.153276832     1.891111440    -0.148637657
O      -1.722761669     1.596052323    -1.199052136
C      -1.471335462     3.160643466     0.599428457
H      -2.532122001     3.166751559     0.837945078
H      -1.275699738     4.004437333    -0.058081136
H      -0.893784031     3.277197851     1.513018137