32
0 1 def2QZVP
N       0.577807284     0.620316001     1.044835744
C       0.794945229    -0.731090335     0.536550933
C       2.261387816    -1.109879128     0.309288310
O       2.695935644    -2.165423770     0.761394746
C      -0.042093495    -1.032039884    -0.720318035
C      -1.488004426    -0.707016968    -0.486311301
C      -2.046900842     0.468172345    -0.996548808
C      -2.285962516    -1.544056130     0.300050327
C      -3.373321063     0.801177084    -0.725258057
C      -3.611145732    -1.214956690     0.574010403
C      -4.157441051    -0.037740538     0.064027408
H       0.155990101     0.687847270     1.954898601
H       0.464176326    -1.398459409     1.329725488
H       0.089493188    -2.093254316    -0.938931549
H       0.343258513    -0.461093496    -1.562240322
H      -1.436332792     1.118026829    -1.611419404
H      -1.867585314    -2.464432007     0.691154642
H      -3.794307585     1.710235195    -1.133852894
H      -4.217401864    -1.876851205     1.177690506
H      -5.187116829     0.217983405     0.273209271
N       2.967483949    -0.241695897    -0.443945169
H       2.480520776     0.579786646    -0.786804876
C       4.352441823    -0.481671849    -0.783720488
H       4.500132258    -0.400015029    -1.858621030
H       5.012562225     0.225702870    -0.283234321
H       4.603797329    -1.487318143    -0.461076742
C       0.616814006     1.758720734     0.313270347
O       1.068961082     1.806809919    -0.833069721
C       0.035192000     2.974304987     0.988054979
H       0.095804690     2.919646339     2.072687827
H      -1.013999103     3.051684578     0.702879201
H       0.555998375     3.857856592     0.633594983