29
0 1 def2QZVP
N      -0.241192825     0.841004753     0.120331717
H      -1.070539223     0.368943113    -0.219624811
C       0.573818836     0.145466770     1.105907966
H       0.913170523     0.900867906     1.819074821
C      -0.239038557    -0.911532473     1.841693927
H      -0.988348770    -0.418046119     2.463840290
H       0.447033868    -1.432933505     2.507157065
C      -0.908919433    -1.955486987     0.946311254
H      -0.265446730    -2.198212260     0.103113129
H      -1.086078769    -2.870173630     1.510914514
S      -2.518369442    -1.364699255     0.329181303
C      -2.838651842    -2.681674748    -0.863872697
H      -3.797848073    -2.475385213    -1.331528807
H      -2.889897732    -3.643140456    -0.357688426
H      -2.063536579    -2.706846240    -1.626227999
C       1.835044871    -0.467948095     0.469800618
O       2.052093905    -1.677943860     0.475464628
N       2.659662507     0.456873181    -0.062634204
H       2.361120009     1.425683699    -0.005741160
C      -0.000496562     2.115859150    -0.255545200
O       0.989022612     2.748073212     0.124991422
C      -1.020814580     2.723772091    -1.183382713
H      -1.380937450     3.648112528    -0.738174837
H      -1.861869730     2.064085972    -1.380992189
H      -0.531356308     2.979065215    -2.120667792
C       3.882070268     0.094290491    -0.744049767
H       4.731723849     0.619643523    -0.312612585
H       4.023845562    -0.975179550    -0.623577662
H       3.826594795     0.328627787    -1.806367805