33
0 1 def2QZVP
N      -1.626346334    -1.161940689    -0.407608025
C      -0.561809517    -0.317738450     0.119362658
C      -0.823338640     1.134032380    -0.303159771
O      -0.244989532     1.658169314    -1.250087432
C       0.786933587    -0.805424493    -0.372048426
C       1.947099090    -0.083345962     0.299690333
H      -1.496889902    -1.581146896    -1.313089159
H      -0.623484933    -0.389299929     1.206280025
H       0.856105473    -1.878158274    -0.177448883
H       1.872273045    -0.209458035     1.383633085
H       1.869000806     0.984495809     0.090900254
N      -1.759726015     1.751210596     0.452202588
H      -2.303249093     1.157503116     1.066957779
C      -2.245083860     3.067091807     0.095089482
H      -3.003143040     3.025323284    -0.687882955
H      -1.410755360     3.656192060    -0.273186709
H      -2.667398105     3.545265732     0.974062310
C      -2.819267163    -1.294976710     0.221531685
O      -3.077249999    -0.710403715     1.274148386
C      -3.810117938    -2.221415833    -0.435709963
H      -4.041450305    -3.025299509     0.259185355
H      -3.448313429    -2.646969654    -1.368198152
H      -4.729146461    -1.671109903    -0.621268256
H       0.843032869    -0.648908852    -1.451270564
C       3.297477798    -0.595448449    -0.181014817
H       3.379172488    -0.478774511    -1.262856935
H       3.377799605    -1.666689252     0.028757543
C       4.461495740     0.127761100     0.473134180
H       4.362587202     0.048881166     1.563165499
H       4.403300414     1.188585181     0.225499442
N       5.730202169    -0.385923323    -0.044926631
H       6.503312362     0.114276823     0.375872502
H       5.839500979    -1.352147928     0.239266570