26
0 1 def2QZVP
N       2.486991149     1.147891314     2.905071442
C       3.733607604     1.924478263     2.797837587
C       4.380729818     2.071992753     4.184545329
O       4.297866574     3.102348131     4.846324689
C       3.287431804     3.272934272     2.226120049
C       1.877218155     3.025638860     1.687865142
C       1.326516759     2.001117444     2.672295491
H       4.411524426     1.377483152     2.141591731
H       3.975864533     3.635059015     1.466945667
H       3.268445054     3.991011501     3.044196823
H       1.912793518     2.581713552     0.692683629
H       1.276228608     3.931274681     1.643211220
H       0.492693868     1.426704717     2.281210542
H       1.017574218     2.483939249     3.602704841
N       5.028910892     0.960081701     4.590660941
H       4.851133109     0.120180832     4.050297420
C       5.577734881     0.872598402     5.926295700
H       6.359749346     0.119008432     5.944354104
H       5.997118698     1.837318949     6.195106222
H       4.818115371     0.614920080     6.665345795
C       2.516650683    -0.206390295     2.910365690
O       3.581369140    -0.833306200     2.948016414
C       1.187675423    -0.921005987     2.870972976
H       1.374099172    -1.975011473     3.044422396
H       0.503423284    -0.539454449     3.625884089
H       0.715831913    -0.802323897     1.895972069