26
0 1 def2QZVP
N      -1.157835361    -0.957085105    -0.546039978
C       0.104944740    -0.476384892    -0.001113787
C       0.240912996     1.027277789    -0.285563805
O       0.988716718     1.470777221    -1.160708697
C       1.253814286    -1.269076236    -0.606340429
C       2.539477771    -1.065119485     0.180065813
O       2.854444597    -1.816014997     1.092174761
N       3.287494075    -0.005310832    -0.223311843
H      -1.156347899    -1.372014533    -1.462476407
H       0.061606298    -0.634986275     1.077380000
H       1.380980229    -0.974983615    -1.647926556
H       1.016491253    -2.328364500    -0.541905384
H       4.064321405     0.249458673     0.362239977
H       2.839836903     0.701900653    -0.787722779
N      -0.543909844     1.792749484     0.490795091
H      -1.220377865     1.306922608     1.070218944
C      -0.633511262     3.223558941     0.290884582
H      -1.357505979     3.479554435    -0.482671312
H      -0.925789418     3.697627131     1.223057755
H       0.339556934     3.593828141    -0.016630302
C      -2.329836423    -0.828843545     0.123687675
O      -2.403918442    -0.255836687     1.210917349
C      -3.537335076    -1.438352612    -0.538911748
H      -4.273514110    -0.656153562    -0.707858527
H      -3.308912682    -1.929496398    -1.481191519
H      -3.974395843    -2.160495802     0.146359127