31
0 1 def2QZVP
N      -1.434442022    -0.040034809    -0.427027424
C      -0.021217083    -0.306726799    -0.187462491
C       0.745760257     1.007499455    -0.386145498
O       1.286166004     1.305922103    -1.446089812
C       0.476992071    -1.403997524    -1.114710719
C       1.704064153    -2.159456106    -0.590436772
C       2.869153943    -1.234535610    -0.251366026
C       1.350193000    -3.036314501     0.607318415
H      -1.787966230    -0.136771169    -1.364186921
H       0.049759787    -0.606884912     0.857696432
H       0.704901908    -0.947054933    -2.079343085
H      -0.333815542    -2.122215496    -1.258177662
H       2.024918815    -2.819177824    -1.400758413
H       2.624801629    -0.593413731     0.597737058
H       3.745412846    -1.820461850     0.025821818
H       3.127840013    -0.590985502    -1.089834265
H       1.044408169    -2.434240818     1.463784490
H       2.211865962    -3.626552710     0.918275984
H       0.537057141    -3.723129455     0.371475892
N       0.732968950     1.804677883     0.707093818
H       0.057696782     1.566340117     1.423102300
C       1.258674675     3.151937149     0.630995095
H       0.591616127     3.820791080     0.085946380
H       1.404938872     3.533184862     1.637152427
H       2.211470579     3.129246326     0.110469640
C      -2.233435063     0.484776277     0.534383570
O      -1.819014957     0.746641693     1.664051798
C      -3.670956909     0.713693337     0.142791134
H      -3.895863738     1.771791668     0.254546549
H      -4.306599910     0.166069899     0.834217884
H      -3.894167230     0.403024901    -0.874691598