28
0 1 def2QZVP
N       1.296898502    -1.067247456     0.667877031
H       1.427657139    -1.368494156     1.618789921
C       0.102550975    -0.300451972     0.342651087
H      -0.150260778    -0.546752391    -0.688061273
C      -1.026403836    -0.699835650     1.275654239
C       0.411475975     1.199038771     0.449917714
H      -0.762037628    -0.398277222     2.289413182
H      -1.130146517    -1.784125669     1.241981194
C      -2.348197026    -0.047002361     0.908232142
O       0.046771825     1.878789683     1.406204917
H      -3.099902201    -0.243465641     1.674323688
H      -2.250589914     1.036281962     0.855425375
C      -2.907441032    -0.556939810    -0.390075871
O      -4.010429947     0.135851460    -0.756785845
O      -2.466457126    -1.474493065    -1.045156723
C       2.268039516    -1.314623419    -0.244769877
C       3.410745490    -2.175689983     0.228864242
O       2.217056200    -0.879275476    -1.394905517
H       3.427384168    -3.081936747    -0.372257071
H       3.340182809    -2.445222366     1.279534685
H       4.342827853    -1.645150492     0.051981979
N       1.124310957     1.668941089    -0.596680970
C       1.629128546     3.024471487    -0.616762020
H       1.493955853     0.974140216    -1.235692628
H       1.610210304     3.410100119    -1.632583642
H       0.988603068     3.632205188     0.014587448
H       2.648422215     3.083830525    -0.234325696
H      -4.304538391    -0.269876625    -1.586207709