26
0 1 def2QZVP
N       0.980822351     0.121498996    -0.072601145
C      -0.076602453     0.459637152     0.872528924
C      -1.468878359    -0.035166602     0.474340186
O      -2.427179582     0.168036279     1.209952422
C      -0.047826947     1.992056786     0.878718275
C       0.335447725     2.317942812    -0.564071458
C       1.404321877     1.274839677    -0.875412930
H       0.122188062     0.054615420     1.863175897
H      -1.000963897     2.404573645     1.198154506
H       0.732249171     2.333896445     1.559442555
H      -0.526704303     2.181373473    -1.217157606
H       0.701310208     3.333803770    -0.691378386
H       1.465285092     1.007376343    -1.928495526
H       2.399105185     1.595852157    -0.560207701
N      -1.535437950    -0.673587490    -0.716757214
H      -0.672954951    -0.775637752    -1.225484617
C      -2.776802457    -1.197623012    -1.242295139
H      -2.695140240    -2.264634154    -1.439112519
H      -3.541428677    -1.028259516    -0.490138409
H      -3.061985492    -0.687789930    -2.160887032
C       1.780241794    -0.988783569    -0.019366017
O       2.768258402    -1.090290049    -0.737381205
C       1.364160981    -2.063866905     0.956583136
H       1.910421372    -2.968626606     0.712259446
H       0.293328775    -2.255401657     0.925559392
H       1.622794311    -1.764502716     1.972485165