28
0 1 def2QZVP
N      -0.806483030    -0.966218710    -0.235130997
C       0.353681635    -0.388979053     0.429464656
C       0.641602280     0.998389567    -0.163703712
O       1.546809704     1.229604741    -0.960825002
C       1.535572094    -1.358294587     0.402526257
C       1.958664020    -1.794473713    -0.998670614
C       2.717130361    -0.763436878     1.162660663
H      -0.659261395    -1.521264181    -1.060126332
H       0.051910898    -0.243566904     1.468357804
H       1.191125792    -2.243810155     0.944829243
H       1.161092451    -2.310061438    -1.536466982
H       2.786146867    -2.499635098    -0.924364851
H       2.277728662    -0.937229636    -1.584667105
H       2.420181225    -0.433190097     2.158639163
H       3.504380524    -1.507419362     1.277266136
H       3.124946917     0.088056970     0.622017601
N      -0.224449120     1.938662238     0.279228862
H      -1.027447609     1.610724934     0.802656246
C      -0.207576591     3.277129179    -0.270362032
H      -0.656157739     3.963120208     0.442231799
H       0.823340091     3.565029817    -0.452626357
H      -0.749533959     3.338433745    -1.214787599
C      -2.074950688    -0.677177081     0.145625679
O      -2.328445807     0.098974013     1.067526096
C      -3.165811357    -1.382037186    -0.619705426
H      -3.728374276    -2.000614330     0.075793111
H      -2.790878391    -2.004067395    -1.428554404
H      -3.845635560    -0.635076609    -1.021770903