32
0 1 def2QZVP
N      -2.348345237    -0.800223219    -0.781892271
C      -1.100373783    -0.329520205    -0.245942828
C      -1.088236457     1.184671354    -0.385268713
O      -1.727071593     1.745109435    -1.273237744
C       0.100473227    -0.939994367    -1.003970388
C       1.402400967    -0.519594241    -0.392942173
C       1.795307049    -1.047120436     0.842674811
C       2.197771609     0.465100681    -0.985680372
C       2.949545423    -0.590783435     1.476582202
C       3.355905729     0.920008925    -0.358511031
C       3.730624744     0.397727792     0.878592092
H      -2.839208002    -0.164964946    -1.392141192
H      -1.030706107    -0.627397859     0.801388831
H       0.039092135    -0.625547430    -2.046906624
H      -0.021395083    -2.022151274    -0.956599851
H       1.191664071    -1.821083448     1.302728924
H       1.900477960     0.879480362    -1.941547636
H       3.241870840    -1.009622212     2.430065127
H       3.963233494     1.679185799    -0.832816764
H       4.627862589     0.750609776     1.368134792
N      -0.317620287     1.836019582     0.514396385
H       0.286883326     1.274338637     1.092463137
C      -0.015567982     3.244406040     0.362500380
H       0.156642709     3.687489594     1.339221633
H       0.864942314     3.399203687    -0.262458945
H      -0.867466953     3.723665120    -0.108600858
C      -2.812421932    -2.040112465    -0.486172814
O      -2.198650394    -2.806665243     0.250674690
C      -4.130254541    -2.410617428    -1.120804315
H      -3.978266283    -3.286015224    -1.747917531
H      -4.557812267    -1.609382475    -1.718041103
H      -4.827197286    -2.686297877    -0.333232850