26
0 1 def2QZVP
N       0.960333704    -0.047263924    -0.167440049
C      -0.014804322     0.609964965     0.699338176
C      -1.466771896     0.220524453     0.461350519
O      -2.318937810     0.459729843     1.307537760
C       0.173848755     2.102250817     0.372193892
C       1.631663038     2.185184605    -0.070692175
C       1.794819151     0.914900882    -0.894894944
H       0.192444272     0.423596767     1.754144127
H      -0.480743895     2.372404425    -0.458244635
H      -0.078328146     2.730264161     1.221975530
H       2.292091123     2.146357266     0.795993483
H       1.853981163     3.087758975    -0.635653915
H       1.427486006     1.055038246    -1.914405280
H       2.809920724     0.531501373    -0.950262791
N      -1.716744278    -0.321508412    -0.754192564
H      -0.919796115    -0.512568332    -1.338738587
C      -3.050139950    -0.689905002    -1.175901137
H      -3.111463933    -1.754567205    -1.393638328
H      -3.722993173    -0.453412967    -0.357196338
H      -3.351587703    -0.128973303    -2.058653633
C       1.395474349    -1.340809346    -0.005530656
O       2.332937644    -1.786341277    -0.656101048
C       0.644454676    -2.167457971     1.010294139
H      -0.425587151    -2.175038110     0.811794149
H       1.032249748    -3.179330956     0.970379321
H       0.789923020    -1.767320974     2.013484984