29
0 1 def2QZVP
N      -1.093500802    -1.116556266    -0.047018772
C      -0.350364681    -0.174724631     0.779418037
C      -0.375619825     1.250663853     0.196180457
O       0.654145181     1.849246695    -0.125780428
C       1.077431258    -0.658856531     0.962364951
C       1.801241161    -0.933693751    -0.370194954
C       3.261811660    -0.526624415    -0.295118767
O       4.175428324    -1.335918596    -0.225265976
H      -0.571176050    -1.718582862    -0.660549378
H      -0.863054108    -0.134803476     1.743150280
H       1.611014495     0.109280796     1.518390977
H       1.072695433    -1.559909197     1.574858996
H       1.330089343    -0.365105269    -1.172262950
H       1.781591111    -1.991586149    -0.622835124
C      -2.436460080    -1.268708791     0.029553172
O      -3.141611914    -0.540006100     0.730137384
N      -1.611887338     1.768375472     0.101222972
H      -2.378956852     1.178831376     0.410815690
C      -1.862137098     3.085915375    -0.442267886
H      -2.504755974     3.026409279    -1.318596289
H      -2.335894988     3.725159086     0.300088305
H      -0.907217350     3.516241190    -0.725980808
C      -3.019873909    -2.392062471    -0.786892689
H      -2.292601876    -2.875439492    -1.434135828
H      -3.836121789    -1.998442178    -1.386589267
H      -3.436527264    -3.130404741    -0.105073851
N       3.435905814     0.819846194    -0.301053360
H       4.361879258     1.179328734    -0.155017288
H       2.631505859     1.429398866    -0.266497608