28
0 1 def2QZVP
N      -1.028118216    -0.423913274     0.418551953
C       0.067978995     0.115061535    -0.348047708
C       1.338532493    -0.577017861     0.131936439
O       1.382415201    -1.181085028     1.199997282
C       0.199438396     1.644721718    -0.198763225
C      -1.063499198     2.336087005    -0.695869063
C       0.504604045     2.037715215     1.241226256
H      -0.750476052    -0.877974716     1.277474577
H      -0.119531832    -0.117035770    -1.399303002
H       1.037831443     1.951743935    -0.831048237
H      -1.300265731     2.054094768    -1.720086671
H      -0.944320793     3.418087358    -0.644629040
H      -1.913543237     2.059330178    -0.073092398
H       1.435074353     1.599167480     1.600210232
H       0.582484654     3.120795818     1.328050806
H      -0.300672213     1.706476176     1.897311018
N       2.410310935    -0.417356522    -0.679061309
H       2.265708945     0.018932288    -1.572558670
C       3.708360618    -0.975865116    -0.362714466
H       4.490584716    -0.251553688    -0.575597427
H       3.712857044    -1.212791676     0.696250660
H       3.901782685    -1.888344579    -0.925198473
C      -2.190459485    -0.801873080    -0.188124832
O      -2.451854067    -0.525179149    -1.352497698
C      -3.147764714    -1.570872431     0.690375835
H      -2.816752641    -1.640644127     1.723372591
H      -3.264012404    -2.572090061     0.280761768
H      -4.118978941    -1.084396395     0.652666803