33
0 1 def2QZVP
N      -1.403506533    -1.206893263    -0.331377071
C      -0.502620829    -0.287458817     0.351695580
C      -0.722939168     1.127970848    -0.199881472
O       0.022388223     1.632066202    -1.034815928
C       0.936197361    -0.728842904     0.170896278
C       1.893255222     0.069898069     1.048079074
H      -1.069250040    -1.677224948    -1.155585051
H      -0.783613702    -0.307628979     1.405784239
H       1.008910747    -1.790088173     0.420443617
H       1.592949141    -0.048177811     2.091873843
H       1.799541191     1.129216050     0.803564102
N      -1.818447641     1.736275878     0.306887286
H      -2.457005356     1.147952075     0.828698941
C      -2.265181304     3.008536989    -0.218849167
H      -2.835640537     2.892715580    -1.141114220
H      -1.394397027     3.620099944    -0.434488172
H      -2.883970540     3.506112905     0.522129681
C      -2.695301582    -1.364810011     0.046132996
O      -3.189453787    -0.734690839     0.981602656
C      -3.491213187    -2.376527662    -0.738002203
H      -4.371696456    -1.885430842    -1.144733963
H      -3.831399479    -3.150278375    -0.053759166
H      -2.926987914    -2.835485356    -1.545791988
H       1.198863853    -0.603589997    -0.880169043
C       3.347791885    -0.361072812     0.891258513
H       3.455459377    -1.428402127     1.094781138
H       3.955252339     0.161231436     1.635156187
C       3.919570175    -0.064697864    -0.485944127
H       3.742803017     0.992032021    -0.720915325
H       3.391794231    -0.647350891    -1.240605429
N       5.328155495    -0.461014638    -0.530496852
H       5.709655035    -0.273959336    -1.449487454
H       5.856935789     0.118996650     0.110218500