29
0 1 def2QZVP
N       1.797055371     0.551680737     0.164591745
H       2.087678850     1.457787772     0.498577644
C       0.375095603     0.335909973     0.066128675
H       0.169135038    -0.208426938    -0.854932340
C      -0.124898048    -0.490699286     1.257259674
H       0.077161935     0.072263539     2.171519678
H       0.485397764    -1.393104063     1.287711199
C      -1.602510627    -0.863660969     1.225370666
H      -1.818465349    -1.571089372     2.026421166
H      -2.233039831     0.011467131     1.382801129
S      -2.181971131    -1.568163157    -0.346643988
C      -0.958068807    -2.881775967    -0.570957502
H      -1.248504847    -3.421372346    -1.469108459
H      -0.988447479    -3.566802407     0.274160327
H       0.047484220    -2.485285175    -0.697779982
C      -0.284690751     1.705468524     0.030043484
O       0.234621998     2.674838773     0.579907013
N      -1.469016306     1.734822165    -0.616334067
H      -1.794305197     0.868424090    -1.022405848
C       2.676501580    -0.422177820    -0.166604117
O       2.310214001    -1.530329781    -0.555044699
C       4.134490319    -0.054932434    -0.044900922
H       4.573528266    -0.048207483    -1.040309944
H       4.639328740    -0.823987537     0.533597503
H       4.291673241     0.914482976     0.421074399
C      -2.283765608     2.928536786    -0.691022381
H      -2.421881947     3.241024480    -1.724176201
H      -3.259291987     2.763114944    -0.237217081
H      -1.764347013     3.712250845    -0.148697771