29
0 1 def2QZVP
N       1.541390370    -1.011652749     0.598923563
H       1.735902574    -1.287950717     1.546707385
C       0.269712692    -0.363195529     0.312856125
H       0.031403567    -0.591959042    -0.725531212
C      -0.798755089    -0.906402586     1.244890616
H      -0.532648392    -0.641304735     2.269967222
H      -0.810927567    -1.994348156     1.158954330
C      -2.185320981    -0.347323622     0.959240578
H      -2.902571630    -0.768012468     1.664457086
H      -2.179186549     0.735460861     1.072962343
S      -2.710203744    -0.774533348    -0.725750729
C      -4.302242858     0.076571392    -0.709791257
H      -4.763495296    -0.076390180    -1.682101128
H      -4.163796695     1.143057631    -0.545985119
H      -4.952404368    -0.334488341     0.059723231
C       0.428669818     1.154735299     0.465911345
O       0.056939485     1.755459642     1.471265260
N       1.032157461     1.735584558    -0.592726814
H       1.438569002     1.110773367    -1.278278511
C       2.517827363    -1.122014465    -0.336136141
O       2.387855219    -0.682774937    -1.478270087
C       3.770928299    -1.835321544     0.103347737
H       4.619088757    -1.173148007    -0.051894759
H       3.910516697    -2.705970624    -0.533030337
H       3.744310959    -2.151985119     1.142880012
C       1.392955489     3.136417909    -0.576299201
H       2.397860275     3.293768629    -0.183318045
H       1.338907684     3.538996912    -1.583982832
H       0.689214459     3.660409969     0.062889338