29
0 1 def2QZVP
N       2.103901813     0.132021944     0.133987849
H       2.492498712     0.965425610     0.547768577
C       0.670175785     0.109378352    -0.008319188
H       0.426051340    -0.326279316    -0.977687265
C       0.036363804    -0.745203556     1.100824185
H       0.375362726    -0.349612727     2.060352771
H       0.437678406    -1.752537120     0.988880081
C      -1.485710359    -0.784629928     1.101554102
H      -1.834679775    -1.474167938     1.870419960
H      -1.900846971     0.202240744     1.312957257
S      -2.130800589    -1.344542013    -0.502680565
C      -3.890879036    -1.204065943    -0.121034077
H      -4.443125366    -1.497432924    -1.010043121
H      -4.149864712    -0.179276873     0.138192643
H      -4.156661497    -1.869325720     0.697513433
C       0.196337075     1.554086836     0.069655475
O       0.828546259     2.396412399     0.704744362
N      -0.954446954     1.808147214    -0.588398224
H      -1.433508688     1.021148321    -1.006521782
C       2.874243777    -0.901542592    -0.288006860
O       2.394896152    -1.909181733    -0.798311265
C       4.359688414    -0.729424825    -0.081361954
H       4.860037396    -0.882689950    -1.034082000
H       4.706204991    -1.501484239     0.601896564
H       4.626296482     0.246981472     0.315286595
C      -1.598863612     3.102537257    -0.526861851
H      -0.847205347     3.836814776    -0.254932728
H      -2.017307304     3.354117419    -1.497778795
H      -2.392659921     3.125364054     0.220310819