28
0 1 def2QZVP
N       0.501008136     0.868020294     0.364847888
C       0.393991636    -0.341289394    -0.437997003
C      -0.848973402    -1.160731029    -0.049943200
O      -0.779691702    -2.291243855     0.422850923
C       1.681872442    -1.159480254    -0.361531012
C       2.797396488    -0.464764685    -1.133939116
C       2.117726167    -1.453379220     1.072038337
H       1.034228982     0.826693475     1.216019699
H       0.243849342    -0.001043042    -1.465455798
H       1.451521970    -2.113122403    -0.837453149
H       2.530604605    -0.326347461    -2.181363384
H       3.715834389    -1.049245283    -1.091588967
H       3.007391923     0.517279849    -0.708117933
H       1.302713337    -1.878310145     1.652304478
H       2.941489914    -2.166034524     1.067796201
H       2.493387031    -0.555643635     1.569353945
N      -2.004345880    -0.505710282    -0.302520686
H      -1.931685126     0.427586470    -0.690764141
C      -3.294983405    -1.071615928     0.021175307
H      -3.944136098    -1.068808650    -0.852002631
H      -3.134525904    -2.095312950     0.344722871
H      -3.781134454    -0.517769570     0.823399638
C      -0.150319892     2.015455311     0.060887173
O      -0.918990534     2.105818655    -0.897675267
C       0.127937979     3.188021292     0.966472122
H       0.536925128     3.995895351     0.364254298
H       0.820346566     2.955595539     1.771703717
H      -0.813497640     3.533698071     1.386482694