23
0 1 def2QZVP
N      -1.044603443    -0.813153795    -0.510152465
C       0.272801164    -0.849460822     0.101715749
C       1.149426323     0.316049170    -0.375274343
O       2.163932008     0.127575297    -1.051751115
C       0.934369878    -2.178939945    -0.236432252
O       2.222324330    -2.276354176     0.318304711
H      -1.199713807    -1.368989419    -1.334528902
H       0.139908443    -0.764732303     1.180764223
H       0.335488119    -2.987607594     0.179516876
H       0.957656284    -2.292009756    -1.326636493
H       2.725585293    -1.582193357    -0.131248726
N       0.707301994     1.523818692     0.016412247
H      -0.163960244     1.542759545     0.535480107
C       1.372872654     2.750772201    -0.364238882
H       0.784816758     3.311849005    -1.089173156
H       1.543530145     3.373890095     0.510474319
H       2.326128126     2.487328485    -0.811216380
C      -2.055184272    -0.042092797    -0.039575836
O      -1.903708039     0.732029935     0.905546403
C      -3.381390609    -0.195465595    -0.737691973
H      -4.111921578    -0.543961906    -0.011324407
H      -3.350015939    -0.888997449    -1.574033588
H      -3.704932590     0.781265489    -1.088291116