33
0 1 def2QZVP
N      -1.634538694    -1.159441345    -0.407359097
C      -0.565792963    -0.325706275     0.127653686
C      -0.807267029     1.128742874    -0.298889513
O      -0.209412871     1.647641504    -1.236849083
C       0.781978325    -0.826642648    -0.352703757
C       1.942558309    -0.124594078     0.339185380
H      -1.496267298    -1.593072366    -1.304637694
H      -0.636950017    -0.394688911     1.214239108
H       0.837322889    -1.901711366    -0.167992221
H       1.872252156    -0.288943206     1.418292599
H       1.861083780     0.949651968     0.168120126
N      -1.748361810     1.755049776     0.442341234
H      -2.305695263     1.166983415     1.050345749
C      -2.214541631     3.076187769     0.079350636
H      -2.958463766     3.043167925    -0.717474764
H      -1.368266916     3.658485905    -0.272166519
H      -2.648506776     3.556247712     0.951577831
C      -2.834107666    -1.280219366     0.211181807
O      -3.098479249    -0.685683169     1.256679403
C      -3.824256564    -2.206043086    -0.447922223
H      -4.743140337    -1.655754363    -0.633817402
H      -4.055981341    -3.010761393     0.245971390
H      -3.461359055    -2.630905836    -1.380313304
H       0.851079346    -0.659560584    -1.429667128
C       3.292357371    -0.619316037    -0.160572517
H       3.358013766    -0.449479196    -1.239310244
H       3.386984315    -1.695463876    -0.003652189
C       4.457433061     0.074307734     0.522866839
H       4.352658305     1.157861313     0.388691479
H       4.408021650    -0.119146870     1.595689547
N       5.725223509    -0.464929524     0.028119823
H       5.821192073    -0.236737095    -0.954358966
H       6.499489390    -0.007217305     0.493051982