19
0 1 def2QZVP
C       1.465337555    -3.065333763     1.113104671
H       2.466188935    -2.676932863     1.296814337
H       1.249666282    -3.868433234     1.810329845
N       1.436709016    -3.594122360    -0.239143092
H       0.852577555    -4.386419452    -0.438231536
C       0.423233635    -1.971554340     1.334670073
O      -0.569036505    -2.158284138     2.030572723
C       2.073370778    -2.972234783    -1.260629753
O       2.705221103    -1.928217607    -1.099434286
N       0.711371410    -0.816498987     0.692247161
H       1.518157826    -0.823099671     0.081006696
C      -0.198643773     0.307117648     0.704012057
H       0.351784387     1.233565938     0.847851302
H      -0.769132170     0.374480635    -0.222277866
H      -0.890108835     0.165775847     1.528776406
C       1.976219482    -3.643769313    -2.605978085
H       1.380015703    -4.552515774    -2.592415187
H       2.982235768    -3.879933036    -2.944344276
H       1.546733848    -2.939898747    -3.314534191