33
0 1 def2QZVP
N       2.768210464    -0.147591512     0.130165872
C       1.362181428     0.012880589    -0.121767874
C       1.071408356     1.505481484    -0.138000596
O       1.781886164     2.297855457     0.476911668
C       0.515056125    -0.683251756     0.967555811
C      -0.948093650    -0.629873772     0.648965841
C      -1.470616249    -1.418298188    -0.380792557
C      -1.807970881     0.261418807     1.298197420
C      -2.808018103    -1.314126263    -0.757169750
C      -3.146065522     0.370855906     0.935465819
C      -3.649274472    -0.416315151    -0.099764658
O      -4.968886953    -0.266768781    -0.419244017
H       3.245574420     0.651987171     0.517271141
H       1.121038980    -0.442785242    -1.083492776
H       0.864550327    -1.714543485     1.017069629
H       0.723888261    -0.199173220     1.922895420
H      -0.824847980    -2.124347003    -0.889869596
H      -1.422029133     0.881819518     2.098013833
H      -3.198933354    -1.936264596    -1.553822294
H      -3.811339477     1.055093497     1.443395451
H      -5.180078577    -0.886310384    -1.125487344
N      -0.018588321     1.866573696    -0.851771881
H      -0.616697758     1.124625112    -1.178623477
C      -0.560831927     3.207277008    -0.771272999
H       0.258449560     3.889298410    -0.568952375
H      -1.027997022     3.470706407    -1.716042609
H      -1.296814632     3.293365990     0.029007937
C       3.399419555    -1.314112549    -0.152318811
O       2.805957651    -2.277368338    -0.629674065
C       4.875583046    -1.348038607     0.158459892
H       5.058612331    -2.138638014     0.882396784
H       5.252044345    -0.406582642     0.550153760
H       5.414060999    -1.602639549    -0.751087597