25
0 1 def2QZVP
N       0.762969950    -1.156280856    -0.072236576
H       0.347319714    -1.964775333    -0.515360144
C      -0.208972142    -0.426568954     0.735658319
H      -0.295922051    -0.931803563     1.703416789
C       0.126644716     1.032094391     1.042652351
C      -1.550919004    -0.698322875     0.035740714
H       1.017385897     1.060446549     1.662185206
H      -0.705858292     1.434853798     1.616455435
C       0.308539082     1.914120182    -0.177468638
O      -1.802961709    -1.855925109    -0.298567326
O       1.537031226     1.986176756    -0.675551237
O      -0.619585321     2.527840610    -0.671704925
N      -2.393448457     0.334497771    -0.130752620
C      -3.653174206     0.108763345    -0.816538336
H      -2.002365872     1.271393240    -0.147521420
H      -4.282707777     0.982818841    -0.684115584
H      -3.502617037    -0.072388965    -1.880252543
H      -4.141250976    -0.761723874    -0.389373223
C       2.101543298    -1.023703683    -0.096794328
C       2.840328751    -2.070894364    -0.887262660
O       2.716564318    -0.100877261     0.457133342
H       3.540312382    -2.568283815    -0.219687943
H       2.186500855    -2.809384253    -1.342432816
H       3.420510749    -1.571846263    -1.659611007
H       2.106692906     1.344234687    -0.185875831