23
0 1 def2QZVP
N       1.015981787    -0.972889014     0.445694845
C      -0.252954224    -0.540583082    -0.126063905
C      -0.526888582     0.913191717     0.278073215
O      -1.306067225     1.201942465     1.183973959
C      -1.362108755    -1.456670312     0.350677799
S      -2.949135940    -1.112405315    -0.458216158
H       1.016310015    -1.365438324     1.372349972
H      -0.149724603    -0.603142194    -1.208645441
H      -1.484412151    -1.370487925     1.428864473
H      -1.113388941    -2.487102976     0.101362267
C       2.201660124    -0.695165416    -0.155603771
O       2.269542832    -0.073580880    -1.214746786
N       0.186246015     1.808491379    -0.434594084
C       0.162962713     3.219371712    -0.113561785
H       0.965930680     3.492886031     0.571104623
H       0.258650088     3.803681796    -1.024471963
H      -0.786551229     3.441676149     0.362947919
H       0.904560302     1.433184929    -1.041794681
C       3.430780842    -1.213821190     0.544975353
H       3.947471561    -1.893746292    -0.128243264
H       3.210129661    -1.730293854     1.475537114
H       4.095922712    -0.377094257     0.743473388
H      -3.139622682     0.052119856     0.171713912