22
0 1 def2QZVP
N       1.076051212     0.502051823    -0.568607723
H       1.304981484     0.925920203    -1.455976794
C       0.012305885     1.090018025     0.219012931
H       0.355851302     1.288883085     1.233978606
C      -0.423357275     2.404340110    -0.416343980
C      -1.224907399     0.201392981     0.373211083
H      -1.240045950     2.831394878     0.158638836
H       0.405782698     3.109000749    -0.441184433
H      -0.770993975     2.232207774    -1.435507551
O      -2.078665578     0.479248221     1.206694567
C       2.021737852    -0.391802566    -0.122702563
C       1.821792241    -0.915923508     1.277218052
H       2.032996805    -0.131196126     2.003424987
H       2.514989667    -1.734865903     1.432781811
H       0.800850402    -1.255142051     1.441412507
O       2.954943913    -0.729678039    -0.834541212
N      -1.296772121    -0.842882669    -0.482675319
H      -0.521195243    -0.971931829    -1.110394785
C      -2.421279061    -1.752099397    -0.495845107
H      -2.086887660    -2.780930626    -0.381235855
H      -3.061810075    -1.486306436     0.339486985
H      -2.990020127    -1.664283699    -1.420005043