25
0 1 def2QZVP
N       0.185513644     0.946329589    -0.876540328
H       0.692199850     1.191452724    -1.709759384
C      -0.094716358    -0.478696124    -0.719950922
H       0.184511424    -0.935628534    -1.665067251
C       0.743276517    -1.113098584     0.383846495
C      -1.571921411    -0.850987487    -0.546578458
H       0.468506004    -2.163329161     0.494099498
H       0.565801774    -0.629165875     1.342851670
C       2.210456998    -1.045072780     0.064009723
O      -2.041074065    -1.769211022    -1.213179014
O       2.955954526    -1.541371527     1.074021643
O       2.693987557    -0.614189149    -0.959559975
N      -2.243961679    -0.158379569     0.393288393
C      -3.633300314    -0.433837578     0.687033370
H      -1.730418557     0.551712029     0.905601370
H      -4.287419659     0.337212355     0.281440690
H      -3.890714166    -1.385512629     0.232513772
H      -3.783256426    -0.492305780     1.762540323
C       0.170706261     1.871363801     0.111136449
C       0.776893230     3.205503264    -0.241941169
O      -0.297445102     1.656289038     1.232266474
H       0.133849564     3.991663526     0.142468362
H       1.740400582     3.286926051     0.258351064
H       0.921889235     3.339512390    -1.310649782
H       3.876662569    -1.471934969     0.779410988