7
0 2 def2QZVP
C       0.794607265     0.000006000    -0.022394993
C      -0.695370656     0.000170000    -0.000460000
H      -1.103398065     0.889594582    -0.481055987
H       1.348475925    -0.924049312     0.048485019
H      -1.086041052    -0.013327012     1.024645907
H      -1.103826699    -0.876719699    -0.503574066
H       1.349386110     0.923446050     0.048633030