7
-1 1 def2QZVP
C      -1.297997707    -0.389518377    -0.000034000
O      -0.477223156     0.728020892     0.000054000
H      -2.351922991    -0.080232267    -0.008639030
H      -1.140853231    -1.035822131    -0.878100852
H      -1.153177769    -1.027514048     0.886361309
H       0.510580373     0.371160160     0.000243000
F       1.749015476    -0.190517039    -0.000010000