7
0 2 def2QZVP
C      -0.025682140    -0.624909950     0.000000000
C      -0.025682140     0.866131620     0.000000000
H       0.993975680    -1.028735690     0.000000000
H      -0.523727420    -1.024534020     0.883419080
H      -0.523727420    -1.024534020    -0.883419080
H       0.052421720     1.418291030    -0.924319190
H       0.052421720     1.418291030     0.924319190