7
0 2 def2QZVP
C      -0.567875981     0.000051000    -0.218958199
C       0.751140646    -0.000036000     0.041932005
H      -1.493883249    -0.000488000     1.531767048
H      -1.101694115     0.920651994    -0.408626438
H      -1.102022205    -0.920233944    -0.409110106
H       1.299130146    -0.922345361     0.173763287
H       1.298897308     0.922324194     0.174362845