10
0 2 def2QZVP
C       1.208439749    -0.287189256     0.000057000
C      -0.065359211     0.576131146    -0.000057000
C      -1.314788501    -0.239518323    -0.000011000
H       1.241370450    -0.928393857     0.881233581
H       1.241396908    -0.928584361    -0.880979576
H       2.101870866     0.338727415     0.000000000
H      -0.048218049     1.226849826    -0.877090123
H      -0.048272025     1.227035038     0.876836118
H      -1.729144871    -0.615771814     0.924435612
H      -1.728763863    -0.616417410    -0.924366819