13
0 1 def2QZVP
C      -2.055636650    -0.612273952     0.000007000
C      -1.231099119     0.640447349     0.000049000
C       0.105633833     0.734275767     0.000026000
C       1.057555440    -0.374407191    -0.000044000
C       2.383583666    -0.198936249    -0.000036000
H      -2.705085304    -0.641595664     0.877132457
H      -2.705127638    -0.641505704    -0.877090123
H      -1.451332107    -1.516082235    -0.000055000
H      -1.793667453     1.567587056     0.000103000
H       0.545756372     1.725641717     0.000064000
H       0.665260470    -1.383242870    -0.000105000
H       3.064692995    -1.037721877    -0.000088000
H       2.819276462     0.792284177     0.000023000