6
-1 1 def2QZVP
F       0.000000000     0.000000000    -1.996808897
C       0.000000000     0.000000000     0.052747506
H      -0.531042599     0.919792762    -0.073852859
H      -0.531042599    -0.919792762    -0.073852859
H       1.062085198     0.000000000    -0.073852859
CL      0.000000000     0.000000000     2.165619967