6
0 2 def2QZVP
N      -1.150817639    -0.043932031    -0.102558784
O       1.179186831    -0.092695979    -0.010290010
H      -1.303183644    -0.547640243     0.766571455
H      -1.338913692     0.935807631     0.091854058
H      -0.030686989    -0.153833943    -0.353184009
H       1.295007856     0.814753043     0.294990916