13
0 1 def2QZVP
C      -1.299622281    -0.904856053    -0.020154986
C      -1.205947325     0.505817249    -0.013414008
C       0.000000000     1.183362040     0.153301062
C       1.205947325     0.505814073    -0.013421999
C       1.299627573    -0.904850762    -0.020146995
H       2.168795913    -1.327552256    -0.515696988
H       1.032043805    -1.454385459     0.873168920
H       2.037131321     1.085585959    -0.398504336
H       0.000001000     2.262915378     0.085905047
H      -2.037131321     1.085585959    -0.398481052
H      -2.168795913    -1.327541673    -0.515716038
H      -0.000011000    -1.181943844    -0.520808311
H      -1.032059680    -1.454396043     0.873158336