10
0 3 def2QZVP
C      -1.394985313    -0.449660959     0.000703001
C      -0.435746243     0.714061196     0.002027003
N       1.927570464    -0.378352208     0.003036001
H      -1.200089332    -1.120950875    -0.835687295
H      -1.322096439    -1.027884472     0.921773850
H      -2.428711902    -0.105352311    -0.089334116
H      -0.417688069     1.308480708    -0.907200309
H      -0.441127447     1.329097454     0.897468739
H       0.828501068     0.180592849    -0.028561019
H       2.472591280     0.498073269     0.003910001