6
0 1 def2QZVP
C      -0.046423027     0.663069677     0.000000000
O      -0.046423027    -0.755061850     0.000000000
H      -1.086956528     0.975940433     0.000000000
H       0.860590377    -1.057042138     0.000000000
H       0.438145004     1.071594513     0.889541664
H       0.438145004     1.071594513    -0.889541664