8
0 1 def2QZVP
C      -0.763094760     0.000000000     0.000000000
C       0.763094760     0.000000000     0.000000000
H       1.158310789    -0.443642097    -0.914095488
H      -1.158310789    -1.013326806    -0.074639922
H       1.158310789    -0.569812770     0.841254240
H       1.158310789     1.013453808     0.072848128
H      -1.158310789     0.442020169     0.914883962
H      -1.158310789     0.571305050    -0.840243511