6
-1 1 def2QZVP
CL      0.000025000     0.019526005     2.322500736
C       0.000513000     0.000486000    -0.000089000
H       0.761279682    -0.750733180     0.006377009
H      -1.030450982    -0.282724058     0.002146999
H       0.270728139     1.034927821    -0.008697028
CL     -0.000297000    -0.019784032    -2.322458402