18
0 1 def2QZVP
C      -2.102967800     0.156161500    -0.163745400
Si     -0.237042000     0.155549300    -0.188820600
C       0.516537600     1.852068800    -0.198657400
C       0.275700000    -1.000849400    -1.563518300
B       1.244655700    -0.916122000     1.720982600
Cl     -0.407258000    -0.188669800     2.351465600
Cl      1.188224700    -2.713785300     1.726095000
Cl      2.647717500    -0.132042200     2.511754800
H       1.329832100    -0.894617600    -1.822741500
H       0.249499400     2.361108100    -1.128831500
H      -2.517187200     0.884999600     0.532018400
H      -2.467355000     0.394270100    -1.168144300
H      -2.505189400    -0.822945900     0.100077700
H      -0.323452500    -0.825803800    -2.460625300
H       0.120740000    -2.041827700    -1.270264300
H       1.604134200     1.823668600    -0.132029500
H       0.147999700     2.458537000     0.628392700
H       1.235410900    -0.549699300     0.526591300