6
0 1 def2QZVP
C      -0.345713400    -0.172890900     0.000000000
C       1.384376700    -0.052007400     0.000000000
N       0.980081500     1.064065800     0.000000000
H      -1.027258800     0.672774100     0.000000000
H      -0.495743000    -0.755970900     0.900484900
H      -0.495743000    -0.755970900    -0.900484900