11
0 1 def2QZVP
B       0.536627800    -3.560327400    -0.054748500
H       0.790442200    -3.545282900     1.108109600
H      -0.596699700    -3.483007600    -0.414801700
H       1.393962200    -3.796770500    -0.846400300
P      -0.199485100     3.524135200     0.595233300
H      -0.251489100     3.627227400    -0.805029900
H      -0.251634800     4.912399200     0.808818300
H      -1.583659200     3.338391500     0.748803800
O       0.865472700    -1.151578600    -0.259110400
C       0.049977800    -0.339544900    -0.380396200
O      -0.753514700     0.474358600    -0.500478000