12
0 1 def2QZVP
C      -0.593461600    -0.082880100     2.197650500
C       0.593461600     0.082880100     2.197650500
C       2.565737800     0.479593200    -1.256297100
C       1.501628000     0.924295400    -0.928708800
C      -2.565737800    -0.479593200    -1.256297100
C      -1.501628000    -0.924295400    -0.928708800
H      -1.646455800    -0.231404300     2.185451700
H       1.646455800     0.231404300     2.185451700
H       3.509275500     0.089009500    -1.553778100
H       0.552852900     1.307565700    -0.634354400
H      -3.509275500    -0.089009500    -1.553778100
H      -0.552852900    -1.307565700    -0.634354400