16
0 1 def2QZVP
C      -1.989594700     0.968799900     0.378632800
C      -0.704362000     1.213317200     0.126101400
C       0.333797200     0.312882800    -0.347547900
C       1.628514700     0.793545600    -0.597906200
H      -2.642025400     1.765159500     0.723432700
H      -0.397850600     2.241771700     0.287952900
H       1.791013100     1.881154900    -0.658145900
O       2.626330800     0.037013800    -0.675321300
H       2.218546300    -1.160637800     0.101755700
C       0.226280200    -1.101394500    -0.443491500
H       0.642003100    -1.582300600    -1.324430400
H      -0.660602500    -1.596253300    -0.069544500
O       1.550722700    -1.816403300     0.568157400
H       1.427509000    -1.489854300     1.467453400
O      -2.549787700    -0.269328800     0.267408200
H      -3.500494100    -0.197472700     0.195493200