12
0 1 def2QZVP
Si     -1.176506200    -0.582129400    -0.132495200
C       1.013768300    -0.700358000    -0.309843300
C       1.226720000     0.614882000     0.101852800
H       1.717832700    -1.246447500    -0.934858100
H       0.678430500    -1.336375200     0.516094800
C      -0.007429300     1.247823200     0.361901000
H       2.205920900     1.082393500     0.207407400
H      -0.489215100     1.579077600    -0.554143200
H      -0.085176600     2.027410000     1.120647200
H      -2.330022000     0.192164400    -0.653425900
H      -1.465861800    -1.061727500     1.237281100
H      -1.288461300    -1.816713200    -0.960418600