11
0 1 def2QZVP
C      -0.285928900     0.918470300     1.073665200
C      -0.403402100    -0.652950500    -0.344586100
C       0.726614500    -0.736333400    -1.202994900
H      -0.137089900     1.911176000     0.646685800
H       0.452011400     0.705212400     1.845980400
H       0.477953600     0.214278300    -0.130168600
H      -1.295470700     0.825630500     1.469027400
H      -1.332051000    -0.261323600    -0.737620100
H      -0.517175400    -1.383274100     0.445509800
H       0.742952700    -0.192216600    -2.133619600
H       1.571585800    -1.348669400    -0.931879500