11
0 1 def2QZVP
C      -0.269233100     1.532385600     1.648062500
C      -0.335005900    -1.309328700    -1.021919900
C       0.784378200    -1.245394300    -1.725904500
H      -0.227082100     2.584105700     1.375496800
H       0.375203100     1.355136100     2.505791600
H       0.065574800     0.925377800     0.809880600
H      -1.292214900     1.266060900     1.903264600
H      -1.227698400    -0.772501300    -1.318523700
H      -0.407933200    -1.900004200    -0.117086300
H       0.857052800    -0.654037600    -2.630255100
H       1.676958700    -1.781799900    -1.428806500