21
0 1 def2QZVP
H       2.076944742    -1.137875406     1.181589422
C       1.486502531    -0.360667129     0.707184253
C      -1.858680664     0.685712245     0.000000000
C       0.929340332     0.685712245     1.609664575
H      -0.015186005    -1.137875406     2.389481853
H       0.658144235     1.631867583     1.139939407
H       1.468246524     0.857609306     2.543077908
C      -0.130812047    -0.360667129     1.640941586
C      -1.355690484    -0.360667129     0.933756333
H      -0.015186005    -1.137875406    -2.389481853
C      -0.130812047    -0.360667129    -1.640941586
H      -2.936493049     0.857609306     0.000000000
C       0.929340332     0.685712245    -1.609664575
H       2.076944742    -1.137875406    -1.181589422
H       0.658144235     1.631867583    -1.139939407
H       1.468246524     0.857609306    -2.543077908
C       1.486502531    -0.360667129    -0.707184253
H      -2.061758736    -1.137875406     1.207892431
H      -1.316288470     1.631867583     0.000000000
C      -1.355690484    -0.360667129    -0.933756333
H      -2.061758736    -1.137875406    -1.207892431