6
0 1 def2QZVP
C      -0.624216199     0.285939854     0.000000000
H      -0.680921456     1.363543076     0.000000000
H      -1.489692068    -0.358473913     0.000000000
N       0.555738020    -0.269246150     0.000000000
H       0.553690015    -1.301767392     0.000000000
O       1.685401688     0.280004525     0.000000000