7
0 1 def2QZVP
C       0.981149869     0.324632093     0.000000000
H       1.054798626     1.400225411     0.000000000
H       1.835715469    -0.330590536     0.000000000
N      -0.218204425    -0.218681840     0.000000000
H      -0.201087800    -1.242257308     0.000000000
N      -1.370406923     0.397915342     0.000000000
H      -2.081964815    -0.331243162     0.000000000