10
0 1 def2QZVP
C      -0.109085039    -0.000069000     1.848679660
C       0.400562143    -0.000032000     0.608786217
C      -0.400562143    -0.000025000    -0.608786217
H       1.482677530     0.000010000     0.474076169
H      -1.482677530    -0.000059000    -0.474076169
C       0.109084039     0.000021000    -1.848679660
H       1.183013423     0.000282000    -2.022593722
H       0.526435188     0.000053000     2.729085975
H      -1.183013423     0.000495000     2.022594722
H      -0.526435188    -0.000149000    -2.729085975