16
0 1 def2QZVP
H       0.000000000     2.526222902    -0.737147263
C       0.000000000     1.439157514    -0.719642257
C       0.000000000    -1.439157514    -0.719642257
C       0.000000000     0.697807249     0.453266162
C       0.000000000     0.701083250    -1.914717684
C       0.000000000    -0.701083250    -1.914717684
C       0.000000000    -0.697807249     0.453266162
C       0.000000000     0.790511282     1.973735705
H       0.000000000     1.227787439    -2.865797024
H       0.000000000    -1.227787439    -2.865797024
H       0.888881317    -1.247376446     2.423545866
H       0.000000000    -2.526222902    -0.737147263
H      -0.888881317     1.247376446     2.423545866
H       0.888881317     1.247376446     2.423545866
H      -0.888881317    -1.247376446     2.423545866
C       0.000000000    -0.790511282     1.973735705