10
0 1 def2QZVP
N       0.000000000     0.000000000     1.142716208
C      -1.124157401     0.000000000     0.352901926
C       1.124157401     0.000000000     0.352901926
C      -0.711897254     0.000000000    -0.960066543
C       0.711897254     0.000000000    -0.960066543
H       0.000000000     0.000000000     2.148336567
H      -2.111454754     0.000000000     0.785258080
H       2.111454754     0.000000000     0.785258080
H      -1.358538485     0.000000000    -1.823619851
H       1.358538485     0.000000000    -1.823619851