21
0 1 def2QZVP
H       2.522255901    -0.956120341     1.181673422
C       1.833155655    -0.284678102     0.669299239
C      -1.806194645     0.514195184     0.000000000
C       0.903097323     0.514195184     1.564210559
H      -0.237769085    -0.956120341     2.775174991
H       0.621787222     1.453060519     1.076966385
H       1.434144512     0.790149282     2.484011887
C      -0.336948120    -0.284678102     1.922208687
C      -1.496208534    -0.284678102     1.252909447
H      -0.237769085    -0.956120341    -2.775174991
C      -0.336948120    -0.284678102    -1.922208687
H      -2.868290024     0.790149282     0.000000000
C       0.903097323     0.514195184    -1.564210559
H       2.522255901    -0.956120341    -1.181673422
H       0.621787222     1.453060519    -1.076966385
H       1.434144512     0.790149282    -2.484011887
C       1.833155655    -0.284678102    -0.669299239
H      -2.284486816    -0.956120341     1.593501569
H      -1.243574444     1.453060519     0.000000000
C      -1.496208534    -0.284678102    -1.252909447
H      -2.284486816    -0.956120341    -1.593501569