14
0 1 def2QZVP
C      -0.318884114     0.000066000     2.894522034
H       0.641335229     0.000179000     3.405964216
H      -1.205045430     0.000070000     3.521832258
C      -0.400823143    -0.000062000     1.553914555
H      -1.386558495    -0.000136000     1.092276390
C       0.757542271    -0.000064000     0.677687242
H       1.723262615     0.000044000     1.182403422
C       0.757542271    -0.000037000    -0.677687242
H       1.723262615     0.000084000    -1.182403422
C      -0.400823143     0.000002000    -1.553914555
H      -1.386558495    -0.000050000    -1.092276390
C      -0.318884114     0.000046000    -2.894522034
H       0.641335229     0.000081000    -3.405964216
H      -1.205045430     0.000024000    -3.521832258