16
0 1 def2QZVP
H      -1.958931950     1.231174627     1.292398462
C      -1.060704629     1.115286586     0.696552249
C       0.187772817     0.755563457     1.243025444
C      -1.060704629     1.115286586    -0.696552249
H       2.349757589     0.204291260     0.000000000
P       1.420581257     1.279454644     0.000000000
C       0.187772817    -1.397498312     0.696470249
H       0.376795885     0.794930471     2.309560825
C       0.187772817    -1.397498312    -0.696470249
H      -1.958931950     1.231174627    -1.292398462
C       0.187772817     0.755563457    -1.243025444
H       0.376795885     0.794930471    -2.309560825
H       1.102461144    -1.607048386    -1.237100442
H      -0.720335507    -1.634281396     1.235148441
H       1.102461144    -1.607048386     1.237100442
H      -0.720335507    -1.634281396    -1.235148441