30
0 1 def2QZVP
C       1.804707645    -0.757478271    -1.129797404
C       2.523036901    -0.422644151     0.181626065
H       2.614943934    -1.254379448     0.889487318
H       3.535611263    -0.043379015     0.000000000
H       1.073183383    -1.558180557    -0.973470348
H       2.443599873    -1.063528380    -1.970959704
C       1.097301392     0.580973207    -1.318664471
C       1.629699582     0.733203262     0.669199239
H       2.101596751     1.714392612     0.674492241
C       0.593346212     0.580973207     1.609622575
H       1.766555631     1.400750500    -1.574983563
C      -0.235306084     0.733203262    -1.745960624
C      -1.104225394    -0.422644151    -2.275826813
C      -1.880787672    -0.757478271    -0.998023356
H      -0.537153192    -1.254379448    -2.709351968
H      -0.466670167     1.714392612    -2.157281770
H      -1.767805631    -0.043379015    -3.061929094
H      -1.379641493    -1.558180557    -0.442669158
H      -2.928701046    -1.063528380    -1.130740404
C      -1.690647604     0.580973207    -0.290959104
C      -1.394392498     0.733203262     1.076761385
H      -2.247253803     1.400750500    -0.742390265
H      -1.634925584     1.714392612     1.482789530
C      -1.418810507    -0.422644151     2.094200748
H      -2.077790742    -1.254379448     1.819864650
C       0.076080027    -0.757478271     2.127821760
H       0.485101173    -1.063528380     3.101699108
H       0.480698172     1.400750500     2.317373828
H       0.306458109    -1.558180557     1.416139506
H      -1.767805631    -0.043379015     3.061929094