11
0 1 def2QZVP
SI      0.000000000     0.000000000    -1.376238551
C       0.000000000    -1.353577483    -0.076013088
C       0.000000000     1.353577483    -0.076013088
C       0.000000000    -0.743168265     1.123967340
C       0.000000000     0.743168265     1.123967340
H      -1.204337220     0.000000000    -2.249363530
H       1.204337220     0.000000000    -2.249363530
H       0.000000000    -2.431036868    -0.181131125
H       0.000000000     2.431036868    -0.181131125
H       0.000000000    -1.277650456     2.070659678
H       0.000000000     1.277650456     2.070659678