9
0 1 def2QZVP
C      -0.717311256     0.000000000     0.735364280
C      -1.093986967     0.000000000    -0.569031731
O       0.000000000     0.000000000    -1.381214343
C       1.093986967     0.000000000    -0.569031731
C       0.717311256     0.000000000     0.735364280
H      -1.371992454     0.000000000     1.592139377
H      -2.048085911     0.000000000    -1.067864755
H       2.048085911     0.000000000    -1.067864755
H       1.371992454     0.000000000     1.592139377