21
0 1 def2QZVP
H       0.000000000     0.000000000     0.000000000
C       0.000000000     0.000000000     1.087522388
C       1.211746433     0.000000000     4.333341548
C      -0.065187023     1.363516487     1.732037619
H       1.994644712     0.978297349     1.044957373
H      -0.608089217     1.472137526     2.666650952
H      -0.149889054     2.230695797     1.081860386
C       1.242524444     0.609410218     1.738458621
C       1.843474658    -0.032288012     2.962683058
H       0.007429003    -2.980677065     2.902032036
C      -0.013773005    -1.893411676     2.912481040
H       1.869531668     0.074348027     5.195720856
C      -1.390168497    -1.276139456     2.970247061
H      -0.971476347    -1.935396691     0.907856324
H      -1.522300544    -0.349174125     3.520991258
H      -2.245294802    -1.943816694     3.040039086
C      -0.623562223    -1.242275444     1.670248597
H       2.930892047    -0.021434008     2.952234054
H       0.272971097     0.531337190     4.461500593
C       1.210739432    -1.292834462     3.553980269
H       1.915152684    -2.045011730     3.901453393