22
0 1 def2QZVP
H      -0.601715215    -1.961067700    -1.564867559
C      -0.604649216    -1.964045701    -0.470569168
C       0.755468270    -1.980192707     0.174084062
C       0.707026253    -1.237074442     1.323199473
C      -0.517893185    -0.514977184     1.383811494
C      -1.227891439    -0.730056261     0.175459063
H      -1.173747419    -2.854215019    -0.151236054
C       0.719778257     0.520877186    -1.287993460
H       1.571944561    -2.619789936    -0.142109051
H       1.506536538    -1.154993413     2.053292733
H      -0.842957301     0.102313037     2.211861790
C      -0.674082241     0.674385241    -1.078093385
H      -2.305453823    -0.584770209     0.128984046
H      -1.383291494     0.476803170    -1.879586671
H       1.185090423    -0.092305033    -2.049487732
C       1.411566504     1.299081464    -0.317758113
C       0.517091185     2.017448721     0.429837154
H       2.485339888     1.271828454    -0.158829057
H       0.757148270     2.687974960     1.247433446
C      -0.839714300     1.921773686    -0.214898077
H      -1.684854602     1.894142677     0.479711171
H      -0.994238355     2.790758997    -0.877644313