17
0 1 def2QZVP
C      -0.604402936     0.096284477     1.304476164
SI     -0.749113488     1.431227454     0.000000000
C       1.541445529    -0.090640591     0.697741599
C      -1.157812230    -1.042048036     0.704230794
C      -0.604402936     0.096284477    -1.304476164
C       1.541445529    -0.090640591    -0.697741599
C      -1.157812230    -1.042048036    -0.704230794
H      -0.575681601     0.195104730     2.383393265
H      -2.101622972     2.060162680     0.000000000
H       0.270932877     2.509471839     0.000000000
H       1.876086690     0.789608895     1.233398652
H       1.647479753    -1.020870827     1.237947087
H      -1.437213413    -1.927869635     1.267424284
H      -0.575681601     0.195104730    -2.383393265
H       1.876086690     0.789608895    -1.233398652
H       1.647479753    -1.020870827    -1.237947087
H      -1.437213413    -1.927869635    -1.267424284