15
0 1 def2QZVP
C      -0.594060014    -0.608477876    -1.075294546
O      -0.503848981    -1.456375679     0.000000000
C       1.351469682     0.166456661    -0.701273482
C      -1.373535591     0.513395870    -0.687330862
C      -0.594060014    -0.608477876     1.075294546
C       1.351469682     0.166456661     0.701273482
C      -1.373535591     0.513395870     0.687330862
H      -0.565140345    -1.091114887    -2.041112355
H       1.862713049    -0.634063786    -1.224166895
H       1.318840213     1.105107734    -1.240910047
H      -1.748362504     1.276884123    -1.352179732
H      -0.565140345    -1.091114887     2.041112355
H       1.862713049    -0.634063786     1.224166895
H       1.318840213     1.105107734     1.240910047
H      -1.748362504     1.276884123     1.352179732