16
0 1 def2QZVP
H      -1.968356641     1.067066381     1.343071480
C      -1.114165335     1.014576362     0.684217244
C       0.229222144     0.729326260     1.099450393
C      -1.114165335     1.014576362    -0.684217244
H       1.982437771     0.706300252     0.000000000
N       1.034778432     1.057822378     0.000000000
C       0.229222144    -1.334113476     0.706597252
H       0.615932282     0.869636311     2.100188750
C       0.229222144    -1.334113476    -0.706597252
H      -1.968356641     1.067066381    -1.343071480
C       0.229222144     0.729326260    -1.099450393
H       0.615932282     0.869636311    -2.100188750
H      -0.655306172    -1.663530594    -1.238016442
H      -0.655306172    -1.663530594     1.238016442
H       1.154843475    -1.565022559     1.225775438
H       1.154843475    -1.565022559    -1.225775438