6
0 1 def2QZVP
C       0.663482237     0.000000000     0.000000000
H       1.234624067    -0.922535829     0.000000000
H       1.234624067     0.922535829     0.000000000
C      -0.663482237     0.000000000     0.000000000
H      -1.234624067    -0.922535829     0.000000000
H      -1.234624067     0.922535829     0.000000000