10
0 1 def2QZVP
P      -0.295836906    -1.586515767     0.000000000
C      -0.082860830    -0.322824315     1.286018459
C      -0.082860830    -0.322824315    -1.286018459
C      -0.082860830     0.909393125     0.728948260
C      -0.082860830     0.909393125    -0.728948260
H       0.991643554    -2.192297983     0.000000000
H      -0.098672835    -0.527340388     2.347811839
H      -0.098672835    -0.527340388    -2.347811839
H      -0.083508830     1.830178454     1.302405465
H      -0.083508830     1.830178454    -1.302405465