17
0 1 def2QZVP
H      -0.538866957    -2.243618448     1.325793474
C      -0.658773000    -1.368187136     0.700088250
H      -0.796082049     1.841655011     0.000000000
C      -0.658773000    -0.044670663     1.155497413
C      -0.658773000    -1.368187136    -0.700088250
H      -2.232306562     0.800125639     0.000000000
C      -1.130850169     0.805203641     0.000000000
C       1.440991750     0.520194539     0.694895248
H      -0.787696046     0.242651440     2.191707783
C       1.440991750     0.520194539    -0.694895248
H      -0.538866957    -2.243618448    -1.325793474
C      -0.658773000    -0.044670663    -1.155497413
H      -0.787696046     0.242651440    -2.191707783
H       1.371005725     1.456400873    -1.236478442
H       1.911730918    -0.286262749     1.241151443
H       1.371005725     1.456400873     1.236478442
H       1.911730918    -0.286262749    -1.241151443