6
0 1 def2QZVP
C       0.000000000     0.665524238     0.000000000
C       0.000000000    -0.665524238     0.000000000
H       0.923558330     1.239453443     0.000000000
H      -0.923558330     1.239453443     0.000000000
H       0.923558330    -1.239453443     0.000000000
H      -0.923558330    -1.239453443     0.000000000