17
0 1 def2QZVP
H      -1.543634551    -1.574115562    -1.328818475
C      -0.744238266    -1.189919425    -0.702911251
H       2.002461715     0.480633172     0.000000000
C       0.358447128    -0.460333164    -1.157427413
C      -0.744238266    -1.189919425     0.702911251
H       1.942119694    -1.293139462     0.000000000
C       1.326385474    -0.376846135     0.000000000
C      -0.332112119     1.629129582    -0.693970248
H       0.671846240    -0.407232145    -2.195444784
C      -0.332112119     1.629129582     0.693970248
H      -1.543634551    -1.574115562     1.328818475
C       0.358447128    -0.460333164     1.157427413
H       0.671846240    -0.407232145     2.195444784
H       0.492420176     2.077388742     1.241173443
H      -1.264662452     1.567484560    -1.243940444
H       0.492420176     2.077388742    -1.241173443
H      -1.264662452     1.567484560     1.243940444