11
0 1 def2QZVP
H      -1.880936672     0.878816314     0.000098000
C      -1.218209435     0.000144000    -0.000003000
C      -0.283259101     0.000058000    -1.181349422
C       0.993103355    -0.000300000    -0.734692262
C       0.993099355     0.000400000     0.734696262
C      -0.283264101    -0.000375000     1.181348422
H      -1.881417672    -0.878142314    -0.000107000
H      -0.610081218    -0.000604000     2.214541791
H      -0.610071218     0.000119000    -2.214544791
H       1.886846674    -0.000395000    -1.349345482
H       1.886834674     0.000643000     1.349358482