6
0 1 def2QZVP
N       0.050755000     0.706691700    -0.221880900
N      -0.050755000    -0.706691700    -0.221880900
H       0.852383000    -1.083876600    -0.457775800
H      -0.323589300    -1.074053700     0.679652700
H      -0.852383000     1.083876600    -0.457775800
H       0.323589300     1.074053700     0.679652700