22
0 1 def2QZVP
C       0.744722200     0.000000000     0.000000000
C       1.478769100    -1.194459400     0.000000000
C       2.866722600    -1.196487800     0.000000000
C       3.573084000     0.000000000     0.000000000
C       2.866722600     1.196487800     0.000000000
C       1.478769100     1.194459400     0.000000000
C      -0.744722200     0.000000000     0.000000000
C      -1.478769100    -1.194459400     0.000000000
C      -2.866722600    -1.196487800     0.000000000
C      -3.573084000     0.000000000     0.000000000
C      -2.866722600     1.196487800     0.000000000
C      -1.478769100     1.194459400     0.000000000
H       0.969708500    -2.146557500     0.000000000
H       3.397997700    -2.139987300     0.000000000
H       4.655461000     0.000000000     0.000000000
H       3.397997700     2.139987300     0.000000000
H       0.969708500     2.146557500     0.000000000
H      -0.969708500    -2.146557500     0.000000000
H      -3.397997700    -2.139987300     0.000000000
H      -4.655461000     0.000000000     0.000000000
H      -3.397997700     2.139987300     0.000000000
H      -0.969708500     2.146557500     0.000000000