20
0 1 def2QZVP
C      -0.006869900     0.770257300     0.414441200
C       0.006869900    -0.770257300     0.414441200
C       1.407911600    -1.325076300     0.640601000
H      -0.610802500    -1.088110800     1.256824600
C      -0.600372200    -1.357550200    -0.853817900
C      -1.407911600     1.325076300     0.640601000
C       0.600372200     1.357550200    -0.853817900
H       0.610802500     1.088110800     1.256824600
H       1.384781900    -2.399360000     0.812717500
H       2.044859800    -1.149281200    -0.224340300
H       1.881801800    -0.861636700     1.502883700
H       0.050152100    -1.181355800    -1.707972300
H      -0.734648100    -2.432743500    -0.761197000
H      -1.570861600    -0.920772000    -1.080144000
H       0.734648100     2.432743500    -0.761197000
H       1.570861600     0.920772000    -1.080144000
H      -0.050152100     1.181355800    -1.707972300
H      -1.384781900     2.399360000     0.812717500
H      -2.044859800     1.149281200    -0.224340300
H      -1.881801800     0.861636700     1.502883700