20
0 1 def2QZVP
C       0.000000000    -0.784211900     0.487029800
C       0.000000000     0.784211900     0.487029800
C      -1.240725000     1.416746500    -0.134054100
H      -0.000000000     1.091454600     1.533292400
C       1.240725000     1.416746500    -0.134054100
C       1.240725000    -1.416746500    -0.134054100
C      -1.240725000    -1.416746500    -0.134054100
H      -0.000000000    -1.091454600     1.533292400
H       1.199932100    -2.496826000    -0.008287100
H       1.310709700    -1.205937400    -1.199929600
H       2.158205500    -1.072073800     0.332786500
H      -1.199932100    -2.496826000    -0.008287100
H      -2.158205500    -1.072073800     0.332786500
H      -1.310709700    -1.205937400    -1.199929600
H       1.199932100     2.496826000    -0.008287100
H       2.158205500     1.072073800     0.332786500
H       1.310709700     1.205937400    -1.199929600
H      -1.199932100     2.496826000    -0.008287100
H      -1.310709700     1.205937400    -1.199929600
H      -2.158205500     1.072073800     0.332786500