22
0 1 def2QZVP
C       0.000000000     0.000000000     0.739583100
C       1.131558200    -0.399724500     1.457941200
C       1.131997500    -0.400373300     2.846238400
C       0.000000000     0.000000000     3.547096700
C      -1.131997500     0.400373300     2.846238400
C      -1.131558200     0.399724500     1.457941200
C       0.000000000     0.000000000    -0.739583100
C       1.131558200     0.399724500    -1.457941200
C       1.131997500     0.400373300    -2.846238400
C       0.000000000     0.000000000    -3.547096700
C      -1.131997500    -0.400373300    -2.846238400
C      -1.131558200    -0.399724500    -1.457941200
H       2.009659800    -0.736225300     0.921921400
H       2.016109200    -0.722312800     3.382055200
H       0.000000000     0.000000000     4.629522900
H      -2.016109200     0.722312800     3.382055200
H      -2.009659800     0.736225300     0.921921400
H       2.009659800     0.736225300    -0.921921400
H       2.016109200     0.722312800    -3.382055200
H       0.000000000     0.000000000    -4.629522900
H      -2.016109200    -0.722312800    -3.382055200
H      -2.009659800    -0.736225300    -0.921921400