14
0 1 def2QZVP
S       0.987798704     1.690861601    -0.050663488
N      -1.610206262     1.298415577    -0.151106364
N      -0.459377541    -0.564340996     0.462477521
C      -0.391878036     0.811462971     0.083121648
H      -2.399446622     0.686036737    -0.074691572
H      -1.717327062     2.249682768    -0.447377118
H      -0.093553473    -0.624311460     1.404849700
C       0.358530150    -1.435280955    -0.386524333
C       0.175763827    -2.878231129     0.017897913
H       0.026386803    -1.291252996    -1.412400202
H       1.410010525    -1.145709643    -0.341477892
H      -0.860566584    -3.183908490    -0.098621259
H       0.793994412    -3.526476886    -0.595740308
H       0.469671159    -3.033947098     1.055285755