7
0 1 def2QZVP
C      -0.214350400     0.953321400     0.000000000
N      -0.111844800    -0.578299200     0.000000000
H       0.810841000    -1.032873000     0.000000000
H      -0.614931200    -0.920285100     0.807492900
H      -0.614931200    -0.920285100    -0.807492900
H       0.372608300     1.249210500     0.872934900
H       0.372608300     1.249210500    -0.872934900