6
0 1 def2QZVP
H      -0.006328753    -0.040847837    -0.008181508
N       0.999537586    -0.002309695    -0.004836171
N       1.477399576     1.342712840     0.005565787
H       0.718282647     2.004209135     0.007628297
H       2.033403321     1.482380211    -0.822271254
H       1.347707043    -0.458647620     0.822096064