20
0 1 def2QZVP
C      -0.018770300     0.776213900     0.189564700
C       0.018770300    -0.776213900     0.189564700
C       1.157703600    -1.257555800     1.075331200
H      -0.913964700    -1.121094900     0.642343600
C       0.107856400    -1.416172600    -1.185319400
C      -0.107856400     1.416172600    -1.185319400
H       0.913964700     1.121094900     0.642343600
C      -1.157703600     1.257555800     1.075331200
H       0.019103000     2.491865700    -1.113049700
H       0.655003200     1.041404300    -1.861888600
H      -1.078096900     1.224834400    -1.648007600
H      -0.019103000    -2.491865700    -1.113049700
H      -0.655003200    -1.041404300    -1.861888600
H       1.078096900    -1.224834400    -1.648007600
H       1.187267200    -2.342431900     1.152479600
H       2.112318500    -0.925498600     0.667267000
H       1.067429100    -0.848012600     2.080360700
H      -1.187267200     2.342431900     1.152479600
H      -2.112318500     0.925498600     0.667267000
H      -1.067429100     0.848012600     2.080360700