28
0 1 def2QZVP
C       1.452718744    -0.177550165     1.263473316
C       1.452718744    -0.177550165    -1.263473316
C      -1.452718744     0.177550165     1.263473316
C      -1.452718744     0.177550165    -1.263473316
C       0.719272215     0.261323958     0.000000000
C      -0.719272215    -0.261323958     0.000000000
C       0.716607326     0.261458378    -2.525173437
C       0.716607326     0.261458378     2.525173437
C      -0.716607326    -0.261458378    -2.525173437
C      -0.716607326    -0.261458378     2.525173437
H       0.699053613     1.354465381    -2.567602866
H       0.699053613     1.354465381     2.567602866
H      -0.699053613    -1.354465381    -2.567602866
H      -0.699053613    -1.354465381     2.567602866
H      -1.538228997     1.269634293    -1.255495407
H      -1.538228997     1.269634293     1.255495407
H       1.538228997    -1.269634293    -1.255495407
H       1.538228997    -1.269634293     1.255495407
H      -0.665814262    -1.359428173     0.000000000
H       0.665814262     1.359428173     0.000000000
H       1.247647284    -0.081596765    -3.414527910
H       1.247647284    -0.081596765     3.414527910
H      -1.247647284     0.081596765    -3.414527910
H      -1.247647284     0.081596765     3.414527910
H      -2.470920880    -0.218794623    -1.255572544
H      -2.470920880    -0.218794623     1.255572544
H       2.470920880     0.218794623    -1.255572544
H       2.470920880     0.218794623     1.255572544