23
0 1 def2QZVP
C      -1.592464630    -0.812348994    -1.313924202
C      -1.242749658     0.272221192    -0.301465422
C       0.000000000     0.000000000     0.558979998
C       1.242749658    -0.272221192    -0.301465422
C       1.592464630     0.812348994    -1.313924202
C       0.233903321     1.215698590     1.455242095
C      -0.233903321    -1.215698590     1.455242095
H      -1.766903504    -1.772678114    -0.831245733
H      -2.499290013    -0.549914275    -1.857140251
H      -0.798507109    -0.946541537    -2.047365432
H      -2.088832899     0.421059342     0.375478708
H      -1.106439037     1.221439662    -0.824758590
H       2.088832899    -0.421059342     0.375478708
H       1.106439037    -1.221439662    -0.824758590
H       1.766903504     1.772678114    -0.831245733
H       2.499290013     0.549914275    -1.857140251
H       0.798507109     0.946541537    -2.047365432
H       0.348261794     2.129573566     0.872829417
H      -0.611858890     1.357537021     2.130018765
H       1.130914300     1.083726765     2.062840647
H      -0.348261794    -2.129573566     0.872829417
H       0.611858890    -1.357537021     2.130018765
H      -1.130914300    -1.083726765     2.062840647