28
0 1 def2QZVP
C       0.161704340     0.691135177    -0.781417296
C       0.161704340     0.691135177     0.781417296
C      -0.147931126    -0.626195576     1.482747673
C      -1.573595106    -1.143986476     1.288586059
C      -1.790684097    -1.929242324     0.000000000
C      -1.573595106    -1.143986476    -1.288586059
C      -0.147931126    -0.626195576    -1.482747673
C       1.544394990     1.236561027    -1.180431150
C       1.968334246     2.103301957     0.000000000
C       1.544394990     1.236561027     1.180431150
H      -0.591443998     1.411317066    -1.113934027
H      -0.591443998     1.411317066     1.113934027
H       0.027849988    -0.467806889     2.550229583
H       0.568784222    -1.392366494     1.171373471
H      -1.832701209    -1.793112067     2.127495990
H      -2.269056363    -0.299808459     1.327518368
H      -2.805382483    -2.333631096     0.000000000
H      -1.115732238    -2.790627819     0.000000000
H      -1.832701209    -1.793112067    -2.127495990
H      -2.269056363    -0.299808459    -1.327518368
H       0.568784222    -1.392366494    -1.171373471
H       0.027849988    -0.467806889    -2.550229583
H       2.244781662     0.402013446    -1.280448366
H       1.522136900     1.762793842    -2.134514198
H       1.404319878     3.038897078     0.000000000
H       3.029296094     2.350213009     0.000000000
H       1.522136900     1.762793842     2.134514198
H       2.244781662     0.402013446     1.280448366