18
0 1 def2QZVP
C       0.141891957    -1.562402174     0.775997181
C       0.141891957    -1.562402174    -0.775997181
C       0.170476587    -0.081491771     1.183154038
C      -0.464236141     0.647944362     0.000000000
C       0.170476587    -0.081491771    -1.183154038
C      -0.246067094     2.150012338     0.000000000
H       0.983914186    -2.115030691     1.188280007
H      -0.764018874    -2.036347856     1.151893823
H       0.983914186    -2.115030691    -1.188280007
H      -0.764018874    -2.036347856    -1.151893823
H       1.202829377     0.264418904     1.284819539
H      -0.335589052     0.111074558     2.128811526
H      -1.538688182     0.434317897     0.000000000
H      -0.335589052     0.111074558    -2.128811526
H       1.202829377     0.264418904    -1.284819539
H       0.822000459     2.373747648     0.000000000
H      -0.686008702     2.616767909     0.881189946
H      -0.686008702     2.616767909    -0.881189946