20
0 1 def2QZVP
C      -2.304421369    -0.584937353    -0.152920632
C      -1.048674694     0.257511288    -0.347691861
C       0.192082364    -0.550623985     0.027848573
C       1.518651619     0.139172235    -0.264534380
C       2.712101744    -0.759592090     0.033385363
C      -1.154773335     1.547656714     0.458581884
H      -2.410847759    -0.864097379     0.897001369
H      -3.199427812    -0.035701547    -0.444395106
H      -2.261942893    -1.501835774    -0.740234798
H      -0.969677080     0.518426921    -1.408127395
H       0.139385380    -0.799876215     1.093537580
H       0.167086299    -1.502069515    -0.511690042
H       1.600568082     1.053850022     0.323791551
H       1.538522607     0.442240059    -1.314538650
H       2.715178429    -1.062630847     1.080428451
H       3.655625111    -0.256054916    -0.171284727
H       2.676874627    -1.665071499    -0.572087994
H      -1.193233585     1.320380808     1.526137371
H      -2.063257965     2.091653690     0.200745189
H      -0.309819769     2.211599384     0.286048254