32
0 1 def2QZVP
C       0.000000000    -1.248414632    -1.461842204
C       0.000000000     1.248414632    -1.461842204
C      -1.244437697     0.000000000     0.322618265
C       1.244437697     0.000000000     0.322618265
C       0.000000000     0.000000000    -2.346300324
C      -1.254009234    -1.239002655    -0.582116459
C      -1.254009234     1.239002655    -0.582116459
C       1.254009234     1.239002655    -0.582116459
C       1.254009234    -1.239002655    -0.582116459
C       0.000000000     0.000000000     1.237813118
H      -0.881756392     0.000000000    -2.993303810
H       0.881756392     0.000000000    -2.993303810
H      -1.314329269    -2.155663934     0.005906172
H      -1.314329269     2.155663934     0.005906172
H       1.314329269     2.155663934     0.005906172
H       1.314329269    -2.155663934     0.005906172
H      -2.144875007    -1.212797953    -1.216375850
H      -2.144875007     1.212797953    -1.216375850
H       2.144875007     1.212797953    -1.216375850
H       2.144875007    -1.212797953    -1.216375850
C       0.000000000     1.220174446     2.162326225
C       0.000000000    -1.220174446     2.162326225
H       0.000000000    -2.143016537    -2.089220348
H       0.000000000     2.143016537    -2.089220348
H      -2.139384269     0.000000000     0.954291243
H       2.139384269     0.000000000     0.954291243
H       0.882019855     1.198817291     2.805606954
H       0.882019855    -1.198817291     2.805606954
H      -0.882019855    -1.198817291     2.805606954
H      -0.882019855     1.198817291     2.805606954
H       0.000000000     2.168692283     1.633332600
H       0.000000000    -2.168692283     1.633332600