23
0 1 def2QZVP
C       2.415845904    -0.811384916    -0.309305435
C       1.087459650    -0.967337938     0.421701651
C       0.000000000     0.000000000    -0.052953035
C       0.294009403     1.425436652     0.421701651
C      -0.505243003     2.497876383    -0.309305435
C      -1.381469053    -0.458098714     0.421701651
C      -1.910602901    -1.686491467    -0.309305435
H       2.832244628     0.187336345    -0.189702652
H       3.154666593    -1.520292776     0.061648649
H       2.287379796    -0.991840979    -1.376674517
H       1.231430096    -0.820476271     1.496450482
H       0.742057369    -1.994607762     0.297017077
H       0.000000000     0.000000000    -1.150452727
H       1.356352308     1.639944414     0.297017077
H       0.094838246     1.476687882     1.496450482
H      -0.284730413     2.476849501    -1.376674517
H      -0.260721132     3.492167798     0.061648649
H      -1.578360348     2.359127625    -0.189702652
H      -1.326268342    -0.656211610     1.496450482
H      -2.098409677     0.354663348     0.297017077
H      -1.253884280    -2.546463970    -0.189702652
H      -2.893945462    -1.971875022     0.061648649
H      -2.002649383    -1.485008522    -1.376674517