26
0 1 def2QZVP
C       0.885292954     0.885292954    -0.885292954
C      -0.885292954    -0.885292954    -0.885292954
C      -0.885292954     0.885292954     0.885292954
C       0.885292954    -0.885292954     0.885292954
C       1.766499492     0.000000000     0.000000000
C       0.000000000    -1.766499492     0.000000000
C       0.000000000     0.000000000     1.766499492
C       0.000000000     0.000000000    -1.766499492
C      -1.766499492     0.000000000     0.000000000
C       0.000000000     1.766499492     0.000000000
H       2.414458529     0.622947662     0.622947662
H       0.622947662    -2.414458529    -0.622947662
H      -0.622947662    -0.622947662     2.414458529
H      -0.622947662     0.622947662    -2.414458529
H      -2.414458529     0.622947662    -0.622947662
H      -0.622947662     2.414458529    -0.622947662
H      -0.622947662    -2.414458529     0.622947662
H       0.622947662     0.622947662     2.414458529
H       2.414458529    -0.622947662    -0.622947662
H      -2.414458529    -0.622947662     0.622947662
H       0.622947662     2.414458529     0.622947662
H       0.622947662    -0.622947662    -2.414458529
H       1.516029200     1.516029200    -1.516029200
H      -1.516029200    -1.516029200    -1.516029200
H      -1.516029200     1.516029200     1.516029200
H       1.516029200    -1.516029200     1.516029200