21
0 1 def2QZVP
C       1.330903734     1.049052045    -0.775503831
C       1.330903734     1.049052045     0.775503831
C      -0.052825929     0.517195948    -1.182523451
C      -0.509924714    -0.345219910     0.000000000
C      -0.052825929     0.517195948     1.182523451
C      -2.011205542    -0.586357835     0.000000000
C       0.229469275    -1.681739544     0.000000000
H       2.118170993     0.400472339    -1.156841175
H       1.515296257     2.040579908    -1.184515207
H       2.118170993     0.400472339     1.156841175
H       1.515296257     2.040579908     1.184515207
H      -0.039202264    -0.036295568    -2.122607692
H      -0.753397968     1.347813246    -1.299016506
H      -0.039202264    -0.036295568     2.122607692
H      -0.753397968     1.347813246     1.299016506
H      -2.554677081     0.359467713     0.000000000
H      -2.316236329    -1.152575844    -0.881509467
H      -2.316236329    -1.152575844     0.881509467
H       1.311037756    -1.547077929     0.000000000
H      -0.035058342    -2.265778321     0.882772413
H      -0.035058342    -2.265778321    -0.882772413