28
0 1 def2QZVP
C       0.228514259     0.733401769    -0.720446253
C      -0.228514259    -0.733401769    -0.720446253
C      -1.755793780    -0.822427466    -0.717497094
C       0.406557543    -1.516712113     0.429557938
C       1.755793780     0.822427466    -0.717497094
C      -0.406557543     1.516712113     0.429557938
C      -2.385923119    -0.029466688     0.425147646
C       1.929289149    -1.425613014     0.385629645
C       2.385923119     0.029466688     0.425147646
C      -1.929289149     1.425613014     0.385629645
H      -0.135877755     1.188101013    -1.649380138
H       0.135877755    -1.188101013    -1.649380138
H      -2.063138962    -1.869980597    -0.670134801
H      -2.133067096    -0.424121391    -1.664350297
H       0.054340847    -1.136296010     1.391087448
H       0.085336621    -2.559611461     0.371460585
H       2.063138962     1.869980597    -0.670134801
H       2.133067096     0.424121391    -1.664350297
H      -0.054340847     1.136296010     1.391087448
H      -0.085336621     2.559611461     0.371460585
H      -2.107555163    -0.469955220     1.385445104
H      -3.473572455    -0.087792940     0.359951563
H       2.368215511    -1.986427576     1.212372406
H       2.288570482    -1.887861106    -0.538843752
H       2.107555163     0.469955220     1.385445104
H       3.473572455     0.087792940     0.359951563
H      -2.368215511     1.986427576     1.212372406
H      -2.288570482     1.887861106    -0.538843752