15
0 1 def2QZVP
C      -0.588367972    -0.486201405    -1.023388050
C      -1.204842245    -0.264053022     0.360260435
C       0.588367972     0.486201405    -1.023388050
C       1.204842245     0.264053022     0.360260435
C       0.000000000     0.000000000     1.293642812
H      -1.293678529    -0.320146639    -1.836223040
H      -0.213146391    -1.508579919    -1.108183186
H      -1.848732563     0.615394492     0.326271243
H      -1.816927135    -1.100427578     0.692458005
H       0.213146391     1.508579919    -1.108183186
H       1.293678529     0.320146639    -1.836223040
H       1.848732563    -0.615394492     0.326271243
H       1.816927135     1.100427578     0.692458005
H       0.191973796    -0.852977771     1.941983188
H      -0.191973796     0.852977771     1.941983188