23
0 1 def2QZVP
C      -2.055687705    -1.909015418     0.178733045
C      -0.653282251    -1.430632319    -0.179903750
C      -0.476500557     0.085863780    -0.076777442
C       0.825344082     0.546314975    -0.756341056
C       2.085053391     0.046287785    -0.054236232
C       0.881358250     2.063286258    -0.909945290
C      -0.591359094     0.554151201     1.371909579
H      -2.802878356    -1.408104739    -0.437624621
H      -2.157240231    -2.981489100     0.019007450
H      -2.295429471    -1.709835749     1.221541238
H      -0.421345785    -1.740787545    -1.202042630
H       0.073694786    -1.925873239     0.468125274
H      -1.296048593     0.543628572    -0.643514317
H       0.810910155     0.114906228    -1.762448784
H       2.176611362     0.482764410     0.940574902
H       2.971069208     0.334911406    -0.619701002
H       2.096390562    -1.037670513     0.048358049
H       0.975084708     2.555245945     0.058087463
H      -0.016086112     2.445060960    -1.397481116
H       1.742801066     2.358158350    -1.509249970
H       0.147479875     0.056619915     2.001046978
H      -1.575271665     0.327126566     1.778402564
H      -0.444667627     1.629082273     1.463479667