28
0 1 def2QZVP
C      -0.540085310     1.540175486    -0.774391323
C      -0.540085310     1.540175486     0.774391323
C      -0.162893585     0.252404654    -1.512256388
C      -0.162893585     0.252404654     1.512256388
C       1.309474458    -0.156358277     1.304314297
C      -1.150444876    -0.898696178     1.281360594
C      -1.150444876    -0.898696178    -1.281360594
C       1.309474458    -0.156358277    -1.304314297
C       1.950547281     0.314419698     0.000000000
C      -0.969739168    -1.697083288     0.000000000
H       0.129586835     2.329306247    -1.124658780
H      -1.534575139     1.825543981    -1.123915641
H       0.129586835     2.329306247     1.124658780
H      -1.534575139     1.825543981     1.123915641
H      -0.268841928     0.502896505    -2.571856044
H      -0.268841928     0.502896505     2.571856044
H       1.406980518    -1.241165919     1.395568121
H       1.902907483     0.264476162     2.118951449
H      -1.061745971    -1.588973334     2.124689763
H      -2.168789896    -0.498096127     1.317720691
H      -1.061745971    -1.588973334    -2.124689763
H      -2.168789896    -0.498096127    -1.317720691
H       1.406980518    -1.241165919    -1.395568121
H       1.902907483     0.264476162    -2.118951449
H       2.996909895    -0.000175577     0.000000000
H       1.971389302     1.406670968     0.000000000
H       0.015782993    -2.166773902     0.000000000
H      -1.688035481    -2.520084299     0.000000000