16
0 1 def2QZVP
C       2.046373000     0.354631000     0.321390000
H       2.044382000     0.240010000     1.410792000
O       2.462541000    -0.852415000    -0.311477000
C       0.679427000     0.834504000    -0.151869000
H       0.486140000     1.813229000     0.297770000
H       0.716190000     0.975438000    -1.234491000
C      -0.449077000    -0.128363000     0.210783000
H      -0.469658000    -0.295035000     1.290804000
H      -0.292182000    -1.097521000    -0.267034000
H       1.897684000    -1.559049000     0.010687000
H       2.807259000     1.091009000     0.068123000
C      -1.807219000     0.388704000    -0.223631000
H      -2.011490000     1.347766000     0.263948000
H      -1.809647000     0.553967000    -1.306023000
O      -2.780715000    -0.585286000     0.144620000
H      -3.640316000    -0.265062000    -0.139761000