16
0 1 def2QZVP
C       1.544053000    -0.411735000    -0.307570000
H       1.490069000    -0.415972000    -1.396274000
O       2.930458000    -0.303101000     0.004510000
C       0.729611000     0.752127000     0.245058000
H       0.762694000     0.727247000     1.339413000
H       1.219242000     1.676709000    -0.064008000
C      -0.726511000     0.763703000    -0.225630000
H      -0.767477000     0.787575000    -1.316758000
H      -1.217845000     1.670819000     0.129171000
H       3.010480000    -0.316576000     0.962083000
H       1.147727000    -1.368377000     0.045591000
C      -1.537390000    -0.421899000     0.268833000
H      -1.162736000    -1.354348000    -0.162547000
H      -1.451711000    -0.496178000     1.359002000
O      -2.891276000    -0.201075000    -0.119798000
H      -3.402479000    -0.970666000     0.142483000