16
0 1 def2QZVP
C       1.551158000    -0.405860000    -0.309878000
H       1.510926000    -0.413951000    -1.399052000
O       2.932465000    -0.287909000     0.019515000
C       0.724857000     0.757426000     0.227262000
H       0.752642000     0.744417000     1.321953000
H       1.208286000     1.682648000    -0.089499000
C      -0.729842000     0.745051000    -0.250571000
H      -0.768201000     0.720206000    -1.341864000
H      -1.212539000     1.676131000     0.060250000
H       3.004004000    -0.328147000     0.976968000
H       1.154591000    -1.362741000     0.041370000
C      -1.543407000    -0.421918000     0.297669000
H      -1.156740000    -1.371391000    -0.067611000
H      -1.476089000    -0.437118000     1.391718000
O      -2.901791000    -0.386888000    -0.127735000
H      -3.278866000     0.440139000     0.184631000