16
0 1 def2QZVP
C      -0.253018000     1.544059000    -0.414718000
H      -1.346677000     1.491057000    -0.454871000
O       0.184119000     2.886591000    -0.213281000
C       0.253018000     0.721674000     0.757634000
H       1.345096000     0.740477000     0.754502000
H      -0.068656000     1.219414000     1.673453000
C      -0.253018000    -0.721674000     0.757634000
H      -1.345096000    -0.740477000     0.754502000
H       0.068656000    -1.219414000     1.673453000
H      -0.108269000     3.407157000    -0.965537000
H       0.137616000     1.153190000    -1.358797000
C       0.253018000    -1.544059000    -0.414718000
H      -0.137616000    -1.153190000    -1.358797000
H       1.346677000    -1.491057000    -0.454871000
O      -0.184119000    -2.886591000    -0.213281000
H       0.108269000    -3.407157000    -0.965537000