16
0 1 def2QZVP
C       1.428818000    -0.097065000     0.549352000
H       0.903725000    -0.560684000     1.388924000
O       1.537454000    -1.010247000    -0.532815000
C       0.740297000     1.209954000     0.155611000
H       0.615180000     1.816285000     1.058438000
H       1.399554000     1.765862000    -0.513834000
C      -0.615643000     1.040803000    -0.539332000
H      -0.475423000     0.594213000    -1.525148000
H      -1.051076000     2.029072000    -0.700783000
H       0.659803000    -1.398915000    -0.622954000
H       2.445546000     0.118699000     0.877454000
C      -1.628832000     0.195107000     0.215197000
H      -1.632078000     0.458067000     1.277957000
H      -2.630850000     0.369902000    -0.184174000
O      -1.276495000    -1.185460000     0.043081000
H      -1.869900000    -1.719647000     0.577019000