16
0 1 def2QZVP
C      -1.824129000    -0.641852000    -0.185956000
H      -2.336832000    -1.494785000     0.268355000
O      -2.485491000     0.578469000     0.152396000
C      -0.399989000    -0.560509000     0.329901000
H      -0.431823000    -0.403058000     1.411128000
H       0.095542000    -1.515795000     0.153729000
C       0.399982000     0.560539000    -0.329827000
H      -0.095517000     1.515835000    -0.153617000
H       0.431775000     0.403117000    -1.411059000
H      -3.375106000     0.540032000    -0.207182000
H      -1.816911000    -0.788522000    -1.271355000
C       1.824145000     0.641833000     0.185975000
H       2.336838000     1.494787000    -0.268308000
H       1.816979000     0.788436000     1.271384000
O       2.485476000    -0.578477000    -0.152479000
H       3.375120000    -0.540057000     0.207029000