16
0 1 def2QZVP
C       1.370096000    -0.340890000     0.653787000
H       0.764139000    -1.225809000     0.836661000
O       2.060268000    -0.596642000    -0.570087000
C       0.487183000     0.899769000     0.590614000
H      -0.066426000     0.964789000     1.529242000
H       1.118124000     1.791791000     0.532800000
C      -0.487183000     0.899757000    -0.590632000
H       0.066425000     0.964761000    -1.529260000
H      -1.118124000     1.791780000    -0.532834000
H       2.658041000     0.140575000    -0.722352000
H       2.076243000    -0.251423000     1.484400000
C      -1.370097000    -0.340902000    -0.653781000
H      -2.076243000    -0.251451000    -1.484397000
H      -0.764141000    -1.225825000    -0.836637000
O      -2.060271000    -0.596633000     0.570097000
H      -2.658014000     0.140607000     0.722369000