16
0 1 def2QZVP
C      -1.359010000    -0.177168000    -0.454055000
H      -0.837316000    -1.117270000    -0.614478000
O      -2.574821000    -0.513522000     0.207633000
C      -0.498951000     0.789038000     0.355864000
H      -1.048900000     1.728151000     0.459792000
H      -0.376474000     0.391416000     1.367487000
C       0.870831000     1.055143000    -0.285902000
H       1.200376000     2.070706000    -0.053780000
H       0.788572000     0.991181000    -1.373826000
H      -3.080563000     0.297145000     0.310830000
H      -1.556234000     0.254447000    -1.441206000
C       1.966330000     0.105421000     0.187969000
H       2.896300000     0.326786000    -0.334090000
H       2.143367000     0.255551000     1.257718000
O       1.689517000    -1.268065000    -0.081611000
H       1.078109000    -1.580011000     0.590122000