16
0 1 def2QZVP
C      -1.822687000    -0.652630000    -0.181243000
H      -2.344427000    -1.486381000     0.285680000
O      -2.617408000     0.498674000     0.103759000
C      -0.406276000    -0.552137000     0.367708000
H      -0.458627000    -0.413247000     1.450471000
H       0.110299000    -1.495205000     0.181108000
C       0.396823000     0.588415000    -0.254581000
H      -0.059927000     1.549788000    -0.005842000
H       0.397163000     0.493643000    -1.344265000
H      -2.294476000     1.216419000    -0.445940000
H      -1.793211000    -0.842577000    -1.259562000
C       1.838481000     0.619097000     0.220511000
H       2.346790000     1.498269000    -0.186257000
H       1.865598000     0.684852000     1.313359000
O       2.470294000    -0.578616000    -0.229951000
H       3.369681000    -0.582494000     0.106411000