16
0 1 def2QZVP
C       2.040990000     0.349745000    -0.333083000
H       2.805900000     1.095179000    -0.095167000
O       2.402974000    -0.926174000     0.189582000
C       0.677246000     0.825770000     0.153170000
H       0.703760000     0.920819000     1.244260000
H       0.502461000     1.831176000    -0.241782000
C      -0.458112000    -0.106527000    -0.261399000
H      -0.256731000    -1.116729000     0.093898000
H      -0.517784000    -0.155131000    -1.350921000
H       2.486270000    -0.832498000     1.142546000
H       2.026784000     0.223737000    -1.415463000
C      -1.799156000     0.351935000     0.278038000
H      -1.766197000     0.383825000     1.372663000
H      -2.018459000     1.364093000    -0.079468000
O      -2.789618000    -0.569027000    -0.172168000
H      -3.638663000    -0.278396000     0.169760000