16
0 1 def2QZVP
C      -1.386620000    -0.069820000     0.488134000
H      -1.543127000     0.660287000     1.282218000
O      -2.689541000    -0.408677000     0.021739000
C      -0.512729000     0.531521000    -0.606158000
H      -0.328990000    -0.219569000    -1.381057000
H      -1.079255000     1.332365000    -1.083365000
C       0.822127000     1.084556000    -0.098897000
H       0.633223000     1.875529000     0.633135000
H       1.357140000     1.540532000    -0.933359000
H      -2.585023000    -1.047990000    -0.688206000
H      -0.905181000    -0.943444000     0.940155000
C       1.737082000     0.046753000     0.546114000
H       2.678332000     0.517613000     0.824711000
H       1.290469000    -0.351560000     1.461646000
O       2.090532000    -1.010941000    -0.342913000
H       1.315328000    -1.564869000    -0.461645000