16
0 1 def2QZVP
C       1.255201000    -0.412467000     0.227148000
H       0.765795000    -1.262577000    -0.235988000
O       2.614856000    -0.460585000    -0.204903000
C       0.579770000     0.893498000    -0.179859000
H       1.180947000     1.720046000     0.212584000
H       0.606236000     0.979536000    -1.268834000
C      -0.856815000     1.063656000     0.323789000
H      -1.175043000     2.090470000     0.129091000
H      -0.898417000     0.918648000     1.406163000
H       3.076116000     0.266958000     0.220989000
H       1.183981000    -0.545110000     1.311855000
C      -1.877718000     0.140739000    -0.320031000
H      -2.885907000     0.477503000    -0.061166000
H      -1.776480000     0.179697000    -1.410037000
O      -1.661937000    -1.186370000     0.161421000
H      -2.303212000    -1.762087000    -0.263084000