16
0 1 def2QZVP
C       2.040473000     0.348045000     0.338073000
H       2.025827000     0.221367000     1.420514000
O       2.400282000    -0.928093000    -0.184860000
C       0.677782000     0.826842000    -0.148392000
H       0.496854000     1.825699000     0.260144000
H       0.707175000     0.937716000    -1.237662000
C      -0.458699000    -0.115172000     0.242396000
H      -0.500067000    -0.194893000     1.333932000
H      -0.262113000    -1.115426000    -0.142518000
H       2.489833000    -0.833670000    -1.137237000
H       2.806543000     1.092643000     0.101643000
C      -1.806426000     0.365620000    -0.275998000
H      -2.021294000     1.368543000     0.109908000
H      -1.785176000     0.432685000    -1.363666000
O      -2.870802000    -0.531082000     0.026756000
H      -2.912193000    -0.613278000     0.983302000