16
0 1 def2QZVP
C      -1.382632000    -0.460567000     0.507638000
H      -2.034408000    -0.581224000     1.378715000
O      -2.156028000    -0.422330000    -0.692798000
C      -0.519937000     0.787141000     0.677476000
H      -1.182766000     1.657775000     0.694597000
H      -0.032682000     0.750239000     1.656417000
C       0.531502000     0.963730000    -0.425516000
H       0.750936000     2.025080000    -0.562967000
H       0.128970000     0.594219000    -1.369668000
H      -2.763030000     0.319055000    -0.617410000
H      -0.754765000    -1.342041000     0.423545000
C       1.851305000     0.273256000    -0.129843000
H       2.555268000     0.463960000    -0.945520000
H       2.280046000     0.684906000     0.790766000
O       1.619534000    -1.128395000     0.014159000
H       2.462948000    -1.547526000     0.202104000