16
0 1 def2QZVP
C       1.392977000     0.251812000    -0.685299000
H       0.798345000     1.121323000    -0.979580000
O       2.215852000     0.557522000     0.441430000
C       0.492488000    -0.956477000    -0.460561000
H      -0.069485000    -1.137183000    -1.378110000
H       1.120648000    -1.830367000    -0.279152000
C      -0.487300000    -0.801340000     0.706668000
H       0.059272000    -0.735098000     1.651259000
H      -1.109908000    -1.695102000     0.770127000
H       1.642052000     0.873627000     1.143317000
H       2.085737000     0.043566000    -1.498809000
C      -1.396798000     0.411350000     0.592379000
H      -2.104441000     0.416674000     1.426437000
H      -0.813796000     1.337540000     0.647826000
O      -2.082929000     0.329199000    -0.654948000
H      -2.680014000     1.079182000    -0.714288000