16
0 1 def2QZVP
C       1.397026000    -0.725223000     0.111659000
H       0.816017000    -1.396394000    -0.520689000
O       2.120576000     0.101548000    -0.796525000
C       0.487796000     0.067324000     1.045545000
H      -0.068159000    -0.637516000     1.670236000
H       1.108040000     0.651343000     1.731495000
C      -0.482537000     1.007675000     0.325588000
H       0.082720000     1.762783000    -0.224047000
H      -1.089457000     1.526992000     1.069303000
H       2.689167000     0.674256000    -0.273955000
H       2.079080000    -1.347194000     0.699040000
C      -1.412829000     0.307235000    -0.658150000
H      -2.102844000     1.033522000    -1.084317000
H      -0.842544000    -0.123323000    -1.485431000
O      -2.236079000    -0.681840000    -0.038671000
H      -1.684735000    -1.444210000     0.152079000