16
0 1 def2QZVP
C       1.400066000    -0.064138000     0.492426000
H       0.917962000    -0.915860000     0.970479000
O       2.623833000    -0.576937000    -0.025192000
C       0.510804000     0.530445000    -0.592845000
H       1.059372000     1.338087000    -1.085789000
H       0.330223000    -0.225837000    -1.359567000
C      -0.816097000     1.083959000    -0.066318000
H      -1.351497000     1.565631000    -0.885949000
H      -0.621379000     1.853015000     0.687482000
H       3.083023000     0.152189000    -0.450893000
H       1.586157000     0.683461000     1.271665000
C      -1.734433000     0.031350000     0.549522000
H      -1.281161000    -0.406201000     1.443932000
H      -2.667155000     0.500803000     0.857779000
O      -2.109241000    -0.986530000    -0.374685000
H      -1.334331000    -1.527247000    -0.546836000