16
0 1 def2QZVP
C      -1.397008000    -0.048950000     0.485780000
H      -1.586351000     0.704003000     1.251552000
O      -2.682405000    -0.424030000    -0.004304000
C      -0.508624000     0.529414000    -0.608179000
H      -0.310133000    -0.246312000    -1.351055000
H      -1.063670000     1.324296000    -1.108944000
C       0.820427000     1.081849000    -0.087554000
H       0.635153000     1.876862000     0.641125000
H       1.363702000     1.544963000    -0.916412000
H      -2.547897000    -1.135172000    -0.636611000
H      -0.909796000    -0.900188000     0.968367000
C       1.719687000     0.035068000     0.564858000
H       2.660852000     0.498949000     0.874434000
H       1.252176000    -0.374478000     1.458330000
O       1.964141000    -1.089096000    -0.278454000
H       2.445186000    -0.772201000    -1.048154000