16
0 1 def2QZVP
C       2.034731000     0.354822000     0.328040000
H       2.016982000     0.212854000     1.413865000
O       2.325788000    -0.873183000    -0.337543000
C       0.674076000     0.829778000    -0.149306000
H       0.494639000     1.827756000     0.259985000
H       0.709675000     0.928350000    -1.237076000
C      -0.455902000    -0.113744000     0.256249000
H      -0.516379000    -0.174924000     1.345432000
H      -0.250424000    -1.117002000    -0.114748000
H       3.158309000    -1.205500000     0.006659000
H       2.794129000     1.107475000     0.095688000
C      -1.798396000     0.347791000    -0.276510000
H      -2.013301000     1.361048000     0.081073000
H      -1.770523000     0.377441000    -1.370907000
O      -2.790065000    -0.569311000     0.180867000
H      -3.635942000    -0.289424000    -0.177399000