16
0 1 def2QZVP
C       2.045636000     0.350480000     0.331751000
H       2.038520000     0.223654000     1.420018000
O       2.471188000    -0.846733000    -0.312727000
C       0.679577000     0.830499000    -0.143847000
H       0.481790000     1.806515000     0.309616000
H       0.719376000     0.977159000    -1.225509000
C      -0.452507000    -0.134272000     0.205020000
H      -0.470318000    -0.302118000     1.287676000
H      -0.292735000    -1.103384000    -0.272110000
H       1.900875000    -1.558436000    -0.012200000
H       2.804636000     1.093018000     0.091379000
C      -1.811544000     0.388454000    -0.241131000
H      -2.011914000     1.356909000     0.229571000
H      -1.813023000     0.541887000    -1.319757000
O      -2.870075000    -0.529306000     0.014413000
H      -2.933077000    -0.637858000     0.967073000