16
0 1 def2QZVP
C       1.398890000    -0.051902000     0.578874000
H       0.847483000    -0.488257000     1.410002000
O       1.425370000    -1.079354000    -0.419635000
C       0.721991000     1.227465000     0.100633000
H       0.626390000     1.888500000     0.966428000
H       1.377791000     1.741483000    -0.608366000
C      -0.657736000     1.024448000    -0.542881000
H      -0.555442000     0.584578000    -1.537038000
H      -1.113192000     2.007037000    -0.682955000
H       1.869050000    -0.728859000    -1.197578000
H       2.411397000     0.164223000     0.927947000
C      -1.612850000     0.146872000     0.265340000
H      -1.527577000     0.398114000     1.330342000
H      -2.640388000     0.356194000    -0.033161000
O      -1.412462000    -1.248012000     0.072650000
H      -0.500543000    -1.385385000    -0.211537000