16
0 1 def2QZVP
C       2.041092000     0.351425000    -0.324587000
H       2.813519000     1.081530000    -0.065718000
O       2.385216000    -0.941345000     0.170137000
C       0.680041000     0.828725000     0.168040000
H       0.700547000     0.891317000     1.261400000
H       0.514623000     1.846117000    -0.198619000
C      -0.462451000    -0.079619000    -0.280270000
H      -0.246411000    -1.105010000     0.028744000
H      -0.530060000    -0.081175000    -1.370459000
H       2.503171000    -0.861875000     1.120703000
H       2.030361000     0.251489000    -1.409683000
C      -1.803630000     0.353671000     0.293404000
H      -1.757166000     0.355919000     1.388316000
H      -2.039716000     1.368996000    -0.025013000
O      -2.887612000    -0.448333000    -0.165291000
H      -2.700003000    -1.355099000     0.092046000