16
0 1 def2QZVP
C       1.540198000    -0.420687000    -0.297495000
H       1.471011000    -0.424897000    -1.391239000
O       2.899686000    -0.393550000     0.126875000
C       0.729653000     0.741445000     0.264524000
H       0.768018000     0.702728000     1.355444000
H       1.215348000     1.674877000    -0.034139000
C      -0.722131000     0.766119000    -0.218406000
H      -0.757597000     0.789111000    -1.309890000
H      -1.210123000     1.676191000     0.133280000
H       3.277850000     0.435604000    -0.178394000
H       1.152179000    -1.373246000     0.058808000
C      -1.541490000    -0.415206000     0.271902000
H      -1.160541000    -1.350746000    -0.147349000
H      -1.472257000    -0.481864000     1.363296000
O      -2.888947000    -0.196455000    -0.140057000
H      -3.407182000    -0.957747000     0.132494000