16
0 1 def2QZVP
C       1.375126000    -0.140622000     0.468078000
H       0.897042000    -1.058057000     0.805231000
O       2.636154000    -0.548481000    -0.054593000
C       0.512121000     0.558803000    -0.574366000
H       1.078043000     1.398299000    -0.989540000
H       0.320358000    -0.136523000    -1.391302000
C      -0.809018000     1.088211000    -0.011359000
H      -1.348726000     1.617637000    -0.801974000
H      -0.614153000     1.824206000     0.774664000
H       3.081991000     0.240993000    -0.373154000
H       1.507389000     0.508702000     1.341866000
C      -1.717266000     0.005741000     0.565520000
H      -1.249007000    -0.473741000     1.423456000
H      -2.650616000     0.456981000     0.915459000
O      -1.979270000    -1.049330000    -0.356006000
H      -2.443164000    -0.668796000    -1.107149000