60
0 1 def2QZVP
C      -3.734626680     0.259415820     0.975890570
C      -2.999226930     0.417846430     2.150569060
C      -2.477677490    -0.928103770     2.483061090
C      -3.628827270    -1.134508090     0.505610240
C      -2.759674410    -1.833220340     1.363991500
C      -3.471816460    -1.124497780    -0.896602070
C      -3.600802170     1.116498280    -0.160606510
C      -3.496817860     0.270612220    -1.351418000
C      -2.767202810     2.237398370    -0.034833400
C      -2.129699160     1.569601020     2.308638970
C      -2.019473750     2.464484990     1.198825390
C      -0.972705770     1.416114510     3.125350340
C      -1.326370100    -1.066955880     3.209935340
C      -0.688190450     0.111731110     3.735789980
C      -0.278899820    -2.005693650     2.773141310
C      -1.721418630    -2.671349500     0.832342960
C      -0.439723230    -2.761961010     1.567140620
C      -2.545077390    -2.026756150    -1.449048610
C      -1.710783330    -2.829778810    -0.588843540
C      -1.766068730    -1.642211320    -2.615990200
C      -2.669709500     0.655256850    -2.402769980
C      -1.828205040    -0.324256920    -3.087158030
C      -1.953674050     2.659415800    -1.149564790
C      -1.923389240     1.900882240    -2.332104780
C      -0.750401860     3.048306230     0.844327460
C      -0.725330550     3.199007340    -0.608715050
C       0.278899820     2.005693650     2.773141310
C       0.439723230     2.761961010     1.567140620
C       0.688190450    -0.111731110     3.735789980
C       0.972705770    -1.416114510     3.125350340
C       1.326370100     1.066955880     3.209935340
C       2.129699160    -1.569601020     2.308638970
C       0.750401860    -3.048306230     0.844327460
C       2.019473750    -2.464484990     1.198825390
C      -0.464121330    -3.067915230    -1.304075500
C      -0.494020240    -2.328238580    -2.553443890
C       0.725330550    -3.199007340    -0.608715050
C       0.670955850    -1.716041930    -3.030875130
C      -0.610587850     0.342601530    -3.508565560
C      -0.670955850     1.716041930    -3.030875130
C       0.610587850    -0.342601530    -3.508565560
C       0.464121330     3.067915230    -1.304075500
C       0.494020240     2.328238580    -2.553443890
C       1.721418630     2.671349500     0.832342960
C       1.710783330     2.829778810    -0.588843540
C       2.477677490     0.928103770     2.483061090
C       2.999226930    -0.417846430     2.150569060
C       2.759674410     1.833220340     1.363991500
C       3.734626680    -0.259415820     0.975890570
C       3.628827270     1.134508090     0.505610240
C       2.767202810    -2.237398370    -0.034833400
C       1.953674050    -2.659415800    -1.149564790
C       1.923389240    -1.900882240    -2.332104780
C       3.600802170    -1.116498280    -0.160606510
C       1.828205040     0.324256920    -3.087158030
C       1.766068730     1.642211320    -2.615990200
C       2.545077390     2.026756150    -1.449048610
C       3.471816460     1.124497780    -0.896602070
C       2.669709500    -0.655256850    -2.402769980
C       3.496817860    -0.270612220    -1.351418000