60
0 1 def2QZVP
C      -2.669080400    -0.737321160    -2.586283790
C      -1.419565610    -1.197412190    -3.029449530
C      -0.679186450     0.000000000    -3.455695960
C      -2.669080400     0.737321160    -2.586283790
C      -1.419565610     1.197412190    -3.029449530
C      -3.269103650     1.182844390    -1.382080800
C      -3.269103650    -1.182844390    -1.382080800
C      -3.688232680     0.000000000    -0.623429450
C      -2.664579400    -2.263024970    -0.719291150
C      -0.736039360    -2.257444470    -2.330595680
C      -1.428706710    -2.827795610    -1.219569490
C       0.736039360    -2.257444470    -2.330595680
C       0.679186450     0.000000000    -3.455695960
C       1.419565610    -1.197412190    -3.029449530
C       1.419565610     1.197412190    -3.029449530
C      -0.736039360     2.257444470    -2.330595680
C       0.736039360     2.257444470    -2.330595680
C      -2.664579400     2.263024970    -0.719291150
C      -1.428706710     2.827795610    -1.219569490
C      -2.626261600     2.289144070     0.732370460
C      -3.569843070     0.000000000     0.762211760
C      -3.071225230     1.178408290     1.462012510
C      -2.626261600    -2.289144070     0.732370460
C      -3.071225230    -1.178408290     1.462012510
C      -0.692920050    -3.335154550    -0.071249310
C      -1.422634310    -2.983526420     1.137114390
C       1.428706710    -2.827795610    -1.219569490
C       0.692920050    -3.335154550    -0.071249310
C       2.664579400    -2.263024970    -0.719291150
C       2.669080400    -0.737321160    -2.586283790
C       2.669080400     0.737321160    -2.586283790
C       3.269103650    -1.182844390    -1.382080800
C       3.269103650     1.182844390    -1.382080800
C       3.688232680     0.000000000    -0.623429450
C       1.428706710     2.827795610    -1.219569490
C       2.664579400     2.263024970    -0.719291150
C      -0.692920050     3.335154550    -0.071249310
C      -1.422634310     2.983526420     1.137114390
C       0.692920050     3.335154550    -0.071249310
C      -0.725880850     2.582554190     2.279676870
C      -2.319101070     0.728009950     2.617359900
C      -2.319101070    -0.728009950     2.617359900
C      -1.177355090     1.423846910     3.029120530
C      -0.725880850    -2.582554190     2.279676870
C      -1.177355090    -1.423846910     3.029120530
C       1.422634310    -2.983526420     1.137114390
C       2.626261600    -2.289144070     0.732370460
C       0.725880850    -2.582554190     2.279676870
C       3.569843070     0.000000000     0.762211760
C       3.071225230    -1.178408290     1.462012510
C       2.626261600     2.289144070     0.732370460
C       1.422634310     2.983526420     1.137114390
C       0.725880850     2.582554190     2.279676870
C       3.071225230     1.178408290     1.462012510
C       0.000000000     0.699551850     3.478644160
C       0.000000000    -0.699551850     3.478644160
C       1.177355090    -1.423846910     3.029120530
C       2.319101070    -0.728009950     2.617359900
C       1.177355090     1.423846910     3.029120530
C       2.319101070     0.728009950     2.617359900