60
0 1 def2QZVP
C      -0.626730750    -4.638134250     0.000000000
C       0.164728610    -4.248307320    -1.146593890
C       1.496846910    -3.946679100    -0.738538060
C       0.164728610    -4.248307320     1.146593890
C       1.496846910    -3.946679100     0.738538060
C      -0.533427740    -3.258837750     1.910255340
C      -1.783363230    -3.817332890     0.000000000
C      -1.785383430    -3.011927530     1.196508190
C      -0.533427740    -3.258837750    -1.910255340
C      -1.785383430    -3.011927530    -1.196508190
C       0.154555010    -2.146654960    -2.492998590
C       2.143607660    -2.772989010    -1.180049190
C       1.541246720    -1.863542440    -2.130086260
C       2.143607660    -2.772989010     1.180049190
C       2.764176110    -2.185244860     0.000000000
C       0.154555010    -2.146654960     2.492998590
C       1.541246720    -1.863542440     2.130086260
C      -0.666005350    -1.038594580     2.845757910
C      -2.424723980    -1.734857630     1.234872290
C      -1.998018550    -0.874804270     2.266848870
C      -2.424723980    -1.734857630    -1.234872290
C      -2.922414520    -1.129727390     0.000000000
C      -0.666005350    -1.038594580    -2.845757910
C      -1.998018550    -0.874804270    -2.266848870
C      -0.152488810     0.255070020    -3.115638130
C       2.012536150    -0.478406940    -2.173732560
C       1.204870490     0.577756940    -2.793245810
C       3.132948540    -0.878714270     0.000000000
C       2.935176920    -0.051768700    -1.168817690
C       2.012536150    -0.478406940     2.173732560
C       2.935176920    -0.051768700     1.168817690
C      -0.152488810     0.255070020     3.115638130
C       1.204870490     0.577756940     2.793245810
C      -2.320158470     0.520641340     2.271311070
C      -1.231495590     1.226632090     2.895682520
C      -3.201355640     0.259886720     0.000000000
C      -2.965045020     1.088262580     1.164089790
C      -2.320158470     0.520641340    -2.271311070
C      -1.231495590     1.226632090    -2.895682520
C      -2.965045020     1.088262580    -1.164089790
C      -0.956049170     2.540107090    -2.546340190
C       1.478597210     1.952503450    -2.494548190
C       0.413191730     2.932197320    -2.478658290
C       3.028240430     1.313823000    -0.731014760
C       3.028240430     1.313823000     0.731014760
C       2.369824280     2.320212870    -1.426406910
C       1.478597210     1.952503450     2.494548190
C       2.369824280     2.320212870     1.426406910
C      -0.956049170     2.540107090     2.546340190
C       0.413191730     2.932197320     2.478658290
C      -2.613708700     2.430653880     0.728037550
C      -2.613708700     2.430653880    -0.728037550
C      -1.661302230     3.179693340    -1.427544410
C      -1.661302230     3.179693340     1.427544410
C       0.582299440     3.840461290    -1.392461500
C       1.782919230     3.460524160    -0.698252450
C       1.782919230     3.460524160     0.698252450
C       0.582299440     3.840461290     1.392461500
C      -0.682463950     3.983464100    -0.704551050
C      -0.682463950     3.983464100     0.704551050