60
0 1 def2QZVP
C      -0.646759950    -2.662162200    -2.625562800
C      -1.182956890    -1.424911510    -3.054356830
C      -0.059627200    -0.620006550    -3.542256970
C       0.814717860    -2.582863290    -2.658136000
C       1.179624790    -1.338532100    -3.224849840
C       1.328803900    -3.040346030    -1.425381510
C      -1.036707180    -3.290280650    -1.422302510
C       0.197467910    -3.613935370    -0.685811850
C      -2.131020560    -2.751351210    -0.731275460
C      -2.248938370    -0.806034660    -2.313179270
C      -2.752591710    -1.540842320    -1.192012590
C      -2.328706180     0.663067150    -2.280438670
C      -0.098035010     0.753416760    -3.424581360
C      -1.266535000     1.424333910    -2.866693220
C       1.092260380     1.497737210    -3.026350430
C       2.250496770    -0.647792250    -2.648217500
C       2.233832570     0.803540660    -2.608854500
C       2.345255380    -2.280764270    -0.736546960
C       2.854745420    -1.135139190    -1.423603910
C       2.345255380    -2.280764270     0.736546960
C       0.197467910    -3.613935370     0.685811850
C       1.328803900    -3.040346030     1.425381510
C      -2.131020560    -2.751351210     0.731275460
C      -1.036707180    -3.290280650     1.422302510
C      -3.227588140    -0.845433660     0.000000000
C      -2.752591710    -1.540842320     1.192012590
C      -3.032091430     1.285986000    -1.192666790
C      -3.390598260     0.512300840     0.000000000
C      -2.658218400     2.564330790    -0.733289560
C      -0.807340860     2.660723100    -2.277662570
C       0.648346650     2.667347200    -2.303413370
C      -1.486532610     3.220918740    -1.183983890
C       1.360611000     3.110554130    -1.180694690
C       2.937839220     1.228483090    -1.420571310
C       3.327509050     0.028159100    -0.693781150
C       2.520653390     2.368267880    -0.727244250
C       2.854745420    -1.135139190     1.423603910
C       3.327509050     0.028159100     0.693781150
C       2.250496770    -0.647792250     2.648217500
C       0.814717860    -2.582863290     2.658136000
C      -0.646759950    -2.662162200     2.625562800
C       1.179624790    -1.338532100     3.224849840
C      -2.248938370    -0.806034660     2.313179270
C      -1.182956890    -1.424911510     3.054356830
C      -0.059627200    -0.620006550     3.542256970
C      -3.032091430     1.285986000     1.192666790
C      -2.658218400     2.564330790     0.733289560
C      -2.328706180     0.663067150     2.280438670
C      -0.741467360     3.662713880     0.000000000
C       0.647447750     3.586610770     0.000000000
C      -1.486532610     3.220918740     1.183983890
C       2.520653390     2.368267880     0.727244250
C       2.937839220     1.228483090     1.420571310
C       2.233832570     0.803540660     2.608854500
C       1.360611000     3.110554130     1.180694690
C      -0.098035010     0.753416760     3.424581360
C      -1.266535000     1.424333910     2.866693220
C      -0.807340860     2.660723100     2.277662570
C       1.092260380     1.497737210     3.026350430
C       0.648346650     2.667347200     2.303413370