15
0 1 def2QZVP
C      -0.094696600     0.953732500     0.000000000
C       0.068777700    -1.199527300     0.674553800
C       0.068777700    -1.199527300    -0.674553800
N      -0.016866900     0.121056600    -1.055559800
N      -0.016866900     0.121056600     1.055559800
H       0.121983100    -2.018011800     1.374674000
H       0.121983100    -2.018011800    -1.374674000
C      -0.029398800     0.562574200    -2.429124200
C      -0.029398800     0.562574200     2.429124200
H       0.866289000     0.229942200    -2.955819800
H      -0.904706700     0.178991600    -2.954871700
H      -0.058729000     1.648108100    -2.439016200
H      -0.904706700     0.178991600     2.954871700
H       0.866289000     0.229942200     2.955819800
H      -0.058729000     1.648108100     2.439016200