7
0 1 def2QZVP
N      -2.021816000     0.038429600    -0.137085700
H      -1.056916700     0.342130600    -0.153474400
H      -2.588966100     0.873685500    -0.177206200
H      -2.179940000    -0.374852100     0.771058600
Si      1.993858400     0.013847400    -0.050214100
H       2.874327000    -0.371337500    -1.209576900
H       2.979453400    -0.521903500     0.956498800