18
0 1 def2QZVP
C       0.013554900    -0.151169800    -0.361883100
C       0.127587100     0.650432700     1.753359800
C       0.105119300    -0.694368400     1.835813900
N       0.036624000    -1.153994200     0.539582600
N       0.071437900     0.952438700     0.411992500
H       0.180380100     1.397424100     2.529197200
H       0.133887300    -1.343002800     2.696659100
C      -0.006247600    -2.546448500     0.172016600
C       0.080194800     2.293976100    -0.122685300
H       0.872001400    -3.077127400     0.541555800
H      -0.900054900    -3.031481100     0.566775200
H      -0.021945900    -2.608718100    -0.912650100
H      -0.789329700     2.855811600     0.221002000
H       0.982662300     2.826280800     0.179582200
H       0.056919300     2.229698400    -1.208170400
O      -0.032041200     0.616164800    -3.184950400
H       0.063184500     0.203139200    -2.302346800
H      -0.973933700     0.580944000    -3.354851000