11
0 1 def2QZVP
C      -1.502398000     0.491708000     0.000000000
C       0.000000000     0.422623000     0.000000000
C      -0.504298000     1.615404000     0.000000000
C       1.115336000    -0.472395000     0.000000000
C       0.979866000    -1.800211000     0.000000000
H      -2.049528000     0.256827000     0.911542000
H      -2.049528000     0.256827000    -0.911542000
H      -0.372885000     2.681257000     0.000000000
H       2.102714000    -0.023598000     0.000000000
H      -0.000401000    -2.257895000     0.000000000
H       1.838596000    -2.456194000     0.000000000