17
0 1 def2QZVP
C       0.000000000     1.190474000     0.026473000
C       0.000000000     0.732134000    -1.237476000
C       0.000000000    -0.732134000    -1.237476000
C       0.000000000    -1.190474000     0.026473000
C       0.000000000     0.000000000     0.952437000
C       0.000000000     2.602182000     0.502970000
C       0.000000000    -2.602182000     0.502970000
H       0.000000000     1.345416000    -2.127560000
H       0.000000000    -1.345416000    -2.127560000
H      -0.875055000     0.000000000     1.611908000
H       0.875055000     0.000000000     1.611908000
H      -0.876877000     2.817896000     1.120235000
H       0.000000000     3.300009000    -0.333923000
H       0.876877000     2.817896000     1.120235000
H       0.000000000    -3.300009000    -0.333923000
H      -0.876877000    -2.817896000     1.120235000
H       0.876877000    -2.817896000     1.120235000