17
0 1 def2QZVP
C      -0.669902000     1.274703000     0.002052000
C       0.876480000     1.248952000    -0.002162000
C       0.004594000    -0.978217000    -0.001194000
C      -1.071174000    -0.180033000    -0.000116000
C       1.250808000    -0.226950000    -0.000429000
C      -2.502487000    -0.589770000     0.000004000
C       2.486734000    -0.729165000     0.001472000
H      -1.080660000     1.793489000    -0.868934000
H      -1.075687000     1.788739000     0.878235000
H       1.290724000     1.753343000     0.870614000
H       1.284867000     1.748699000    -0.880421000
H      -3.022770000    -0.189446000    -0.875043000
H      -2.614128000    -1.673099000    -0.001516000
H       3.359600000    -0.090300000     0.002292000
H       2.658608000    -1.797149000     0.002287000
H      -3.021876000    -0.192009000     0.876755000
H      -0.029000000    -2.059398000    -0.002038000