17
0 1 def2QZVP
C      -0.618803000    -0.006859000     0.498850000
C      -1.678624000     1.051362000    -0.007396000
C      -1.647534000    -1.042477000     0.056498000
C      -2.537244000    -0.142667000    -0.363785000
H      -2.065763000     1.712263000     0.770219000
C       0.695731000    -0.015194000    -0.201444000
H       0.650263000    -0.041780000    -1.288097000
C       1.881539000    -0.000387000     0.397695000
H       1.913372000     0.021181000     1.484047000
H      -1.628031000    -2.123784000     0.081358000
H      -3.524531000    -0.221021000    -0.798246000
H      -1.333551000     1.659019000    -0.845174000
C       3.202890000    -0.010480000    -0.303612000
H       3.078775000    -0.032146000    -1.386377000
H       3.793568000     0.872871000    -0.046611000
H       3.798665000    -0.879601000    -0.012197000
H      -0.470503000     0.033215000     1.580245000