14
0 1 def2QZVP
C       0.000000000     0.185069000     0.000000000
C      -1.375639000    -0.425052000     0.000000000
C      -0.038773000    -1.111016000     0.000000000
C       0.711211000     1.425145000     0.000000000
C       0.615790000    -2.428679000     0.000000000
C       0.107594000     2.616183000     0.000000000
H      -1.973131000    -0.406438000     0.911869000
H      -1.973131000    -0.406438000    -0.911869000
H       1.794625000     1.366737000     0.000000000
H       0.313451000    -3.006442000    -0.877524000
H       1.701923000    -2.338927000     0.000000000
H      -0.971736000     2.691254000     0.000000000
H       0.673454000     3.536786000     0.000000000
H       0.313451000    -3.006442000     0.877524000