14
0 1 def2QZVP
C       1.190986000    -0.114132000     0.000000000
C       0.582650000    -1.539955000     0.000000000
C       0.000000000     0.834268000     0.000000000
C      -0.901957000    -1.295746000     0.000000000
C      -1.200660000     0.006390000     0.000000000
C       0.043814000     2.167026000     0.000000000
H       1.817472000     0.054360000     0.875613000
H       1.817472000     0.054360000    -0.875613000
H       0.890349000    -2.120423000     0.873514000
H       0.890349000    -2.120423000    -0.873514000
H      -1.625191000    -2.099219000     0.000000000
H      -2.198823000     0.421106000     0.000000000
H       0.981853000     2.705613000     0.000000000
H      -0.862477000     2.757523000     0.000000000