17
0 1 def2QZVP
C       0.844542000    -1.285632000     0.000000000
C      -0.657980000    -1.220787000     0.000000000
C       1.257174000     0.179579000     0.000000000
C      -1.125312000     0.025746000     0.000000000
C       0.000000000     1.032353000     0.000000000
C       2.502139000     0.633307000     0.000000000
H       1.236418000    -1.813974000     0.875081000
H       1.236418000    -1.813974000    -0.875081000
H      -1.280383000    -2.105749000     0.000000000
H       3.350625000    -0.038941000     0.000000000
H       2.720423000     1.693582000     0.000000000
H      -0.047915000     1.689792000    -0.874475000
H      -0.047915000     1.689792000     0.874475000
C      -2.551924000     0.459215000     0.000000000
H      -2.774162000     1.074581000    -0.876537000
H      -3.231179000    -0.392375000     0.000000000
H      -2.774162000     1.074581000     0.876537000