17
0 1 def2QZVP
C      -1.686087000    -1.277942000    -0.054852000
C      -1.679406000     0.119681000     0.493257000
C      -0.520098000    -0.712777000     0.021802000
C      -2.195005000     1.298870000    -0.309248000
C       0.895845000    -0.720490000    -0.169741000
C       1.677033000     0.318779000     0.144218000
H      -3.270636000     1.431251000    -0.169404000
H      -2.009137000     1.151657000    -1.374219000
H      -1.709182000     2.229676000    -0.006621000
H       1.335269000    -1.620120000    -0.590149000
H       1.205106000     1.203273000     0.559883000
H      -2.289215000    -2.126473000    -0.321544000
C       3.156836000     0.362375000    -0.032738000
H       3.660311000     0.539426000     0.921631000
H       3.539499000    -0.566936000    -0.453895000
H       3.448428000     1.184064000    -0.692670000
H      -1.805159000     0.243200000     1.570801000