17
0 1 def2QZVP
C      -0.571671000    -1.031911000     0.000000000
C       0.656945000    -1.902397000     0.000000000
C       1.780062000    -1.193667000     0.000000000
C       1.520696000     0.288806000     0.000000000
C       0.000000000     0.379382000     0.000000000
C      -0.695455000     1.510119000     0.000000000
C      -2.188320000     1.622336000     0.000000000
H      -1.203598000    -1.220531000     0.874204000
H       0.604611000    -2.982265000     0.000000000
H       2.777083000    -1.611679000     0.000000000
H       1.959385000     0.778675000    -0.875106000
H       1.959385000     0.778675000     0.875106000
H      -1.203598000    -1.220531000    -0.874204000
H      -0.149320000     2.449191000     0.000000000
H      -2.542183000     2.172516000     0.876244000
H      -2.673126000     0.647425000     0.000000000
H      -2.542183000     2.172516000    -0.876244000