17
0 1 def2QZVP
C      -0.589125000    -0.224319000    -0.117789000
C      -1.935405000    -0.932745000     0.130819000
C      -1.293173000     1.063599000    -0.031570000
C      -2.489385000     0.487182000     0.188350000
H      -2.292984000    -1.550582000    -0.695048000
C       0.654108000    -0.644456000    -0.320691000
H       0.841608000    -1.714512000    -0.319425000
C       1.841206000     0.245696000    -0.529834000
H       1.517903000     1.287478000    -0.568796000
H       2.293540000     0.024954000    -1.502266000
H      -0.968902000     2.091239000    -0.114213000
H      -3.484941000     0.873301000     0.348739000
H      -1.993049000    -1.504789000     1.058774000
C       2.905412000     0.073660000     0.560127000
H       3.250470000    -0.960617000     0.609356000
H       3.772617000     0.706830000     0.367473000
H       2.501917000     0.334991000     1.538935000