17
0 1 def2QZVP
C      -0.280938000    -0.506291000    -0.423189000
C       1.037674000     0.386281000    -0.514442000
C       0.628324000    -1.532783000     0.238429000
C       1.727184000    -0.782262000     0.161974000
H       1.339642000     0.518866000    -1.556977000
C      -1.417143000     0.018570000     0.384148000
H      -1.189344000     0.295703000     1.408228000
C      -2.661008000     0.152262000    -0.059946000
H      -3.451685000     0.536069000     0.570406000
H      -2.931254000    -0.120863000    -1.073036000
H       0.423079000    -2.524869000     0.617819000
H       2.756892000    -0.938482000     0.455801000
C       1.051350000     1.731533000     0.192044000
H       2.044421000     2.180807000     0.134405000
H       0.342452000     2.422333000    -0.266969000
H       0.793713000     1.633308000     1.246561000
H      -0.640572000    -0.806730000    -1.410344000