17
0 1 def2QZVP
C       0.640285000     0.025877000     0.490229000
C      -0.464340000     1.103003000     0.159076000
C      -0.487073000    -0.982677000     0.302035000
C      -1.419825000    -0.067346000     0.023495000
H      -0.277486000     1.672815000    -0.753135000
H      -0.672452000     1.801060000     0.972513000
C       1.780411000    -0.055614000    -0.465057000
H       1.504965000    -0.113289000    -1.515023000
C       3.063201000    -0.072929000    -0.125234000
H       3.372288000    -0.022909000     0.912031000
H       3.847863000    -0.137749000    -0.866759000
H      -0.499366000    -2.062858000     0.368546000
C      -2.867859000    -0.104516000    -0.298168000
H      -3.064289000     0.353367000    -1.271228000
H      -3.245621000    -1.126778000    -0.317783000
H      -3.445796000     0.461073000     0.437687000
H       1.011097000     0.100482000     1.514900000