14
0 1 def2QZVP
C       0.000000000     1.097981000     0.000000000
C       0.000000000    -1.097981000     0.000000000
C      -1.059124000     0.000000000     0.000000000
C       1.059124000     0.000000000     0.000000000
C      -2.379287000     0.000000000     0.000000000
C       2.379287000     0.000000000     0.000000000
H       0.000000000     1.738738000     0.884483000
H       0.000000000     1.738738000    -0.884483000
H       0.000000000    -1.738738000     0.884483000
H       0.000000000    -1.738738000    -0.884483000
H      -2.944153000    -0.923495000     0.000000000
H      -2.944153000     0.923495000     0.000000000
H       2.944153000    -0.923495000     0.000000000
H       2.944153000     0.923495000     0.000000000