14
0 1 def2QZVP
C       0.000000000     0.606549000     0.000000000
C      -0.644611000     1.729705000     0.000000000
C       0.856012000     1.840406000     0.000000000
C       0.014545000    -0.831017000     0.000000000
C       1.179851000    -1.486594000     0.000000000
H      -1.570312000     2.273867000     0.000000000
H       2.117614000    -0.949042000     0.000000000
H       1.374615000     2.133057000     0.911461000
H       1.220025000    -2.567248000     0.000000000
C      -1.322024000    -1.519668000     0.000000000
H      -1.904056000    -1.228698000     0.876639000
H      -1.904056000    -1.228698000    -0.876639000
H      -1.211089000    -2.602582000     0.000000000
H       1.374615000     2.133057000    -0.911461000