12
0 1 def2QZVP
C       0.127833580     1.521670970    -0.710208860
C      -1.116188670     0.851566860    -0.633982020
C      -1.154785170    -0.559237750    -0.531142580
C       0.050646580    -1.299957010    -0.504487070
C       1.294679270    -0.629853350    -0.580606300
C       1.333272600     0.780957950    -0.683472840
H       2.226154770    -1.202579030    -0.564278800
H       2.294571560     1.298493470    -0.746639420
H       0.157561240     2.611622940    -0.794159150
H      -2.047854570     1.423668140    -0.658987040
H      -2.116273460    -1.077410820    -0.476711330
H       0.020727350    -2.390553550    -0.429450550