20
0 1 def2QZVP
C       0.638662055     0.313454519    -1.121987403
C      -0.514213467    -0.679346977    -0.765229281
C      -0.514213467    -0.679346977     0.765229281
C       0.638662055     0.313454519     1.121987403
C       1.902517942    -0.380583453    -0.666125450
C       1.902517942    -0.380583453     0.666125450
C       0.477792765     1.347597369     0.000000000
C      -1.874834732    -0.148598945    -1.139491314
C      -1.874834732    -0.148598945     1.139491314
O      -2.596129438     0.140546014     0.000000000
O      -2.330453288     0.034819872     2.219752494
O      -2.330453288     0.034819872    -2.219752494
H       0.607324270     0.665239334    -2.150921857
H      -0.374089262    -1.650235470    -1.239728100
H      -0.374089262    -1.650235470     1.239728100
H       0.607324270     0.665239334     2.150921857
H       2.607616668    -0.872186149    -1.323682046
H       2.607616668    -0.872186149     1.323682046
H      -0.487270540     1.862268434     0.000000000
H       1.280546843     2.084462722     0.000000000