16
0 1 def2QZVP
C      -0.661894746    -0.059709786    -1.393910488
C      -1.486209329    -0.113548397    -0.144719260
C      -0.691627714     0.317536483     1.081726063
C       0.691627714    -0.317536483     1.081726063
C       1.486209329     0.113548397    -0.144719260
C       0.661894746     0.059709786    -1.393910488
H      -1.190276146    -0.118797776    -2.341761457
H      -2.373254726     0.518104979    -0.263582029
H      -1.871283789    -1.133268847    -0.007315523
H      -1.235540191     0.060874974     1.994969257
H      -0.583769074     1.408342233     1.074593438
H       1.235540191    -0.060874974     1.994969257
H       0.583769074    -1.408342233     1.074593438
H       2.373254726    -0.518104979    -0.263582029
H       1.871283789     1.133268847    -0.007315523
H       1.190276146     0.118797776    -2.341761457