18
0 1 def2QZVP
C       0.670674188     0.526804880    -1.061947049
C      -0.468879724    -0.501694049    -0.763638468
C      -0.468879724    -0.501694049     0.763638468
C       0.670674188     0.526804880     1.061947049
C       1.959624639    -0.157707325    -0.664126740
C       1.959624639    -0.157707325     0.664126740
O       0.473440289     1.448957762     0.000000000
C      -1.819831549     0.056697584    -1.136532161
C      -1.819831549     0.056697584     1.136532161
O      -2.530976708     0.362803748     0.000000000
O      -2.268086235     0.238483258     2.219596540
O      -2.268086235     0.238483258    -2.219596540
H       0.611609680     1.013784196    -2.031762911
H      -0.316593803    -1.459898145    -1.257378208
H      -0.316593803    -1.459898145     1.257378208
H       0.611609680     1.013784196     2.031762911
H       2.660251014    -0.622351154    -1.343239119
H       2.660251014    -0.622351154     1.343239119