15
0 1 def2QZVP
C       0.000000000    -1.114922798    -0.212542293
C       1.233154377    -0.664009719     0.576495802
C       1.233154377     0.664009719     0.576495802
C       0.000000000     1.114922798    -0.212542293
C       0.000000000     0.000000000    -1.285132159
C      -1.233154377    -0.664009719     0.576495802
C      -1.233154377     0.664009719     0.576495802
H       0.000000000    -2.148612393    -0.553540660
H       1.921324300    -1.329754293     1.079287449
H       1.921324300     1.329754293     1.079287449
H       0.000000000     2.148612393    -0.553540660
H      -0.900303964     0.000000000    -1.902917471
H       0.900303964     0.000000000    -1.902917471
H      -1.921324300    -1.329754293     1.079287449
H      -1.921324300     1.329754293     1.079287449