17
0 1 def2QZVP
C      -0.317604128     0.202408141    -1.119904923
C       0.515876112     1.377830279    -0.666385950
C       0.515876112     1.377830279     0.666385950
C      -0.317604128     0.202408141     1.119904923
C      -1.365047329     0.159946770     0.000000000
C       0.513551773    -1.064936973    -0.773729103
C       0.513551773    -1.064936973     0.773729103
H      -0.683175877     0.235623380    -2.145678741
H       1.102408571     2.011281914    -1.320317918
H       1.102408571     2.011281914     1.320317918
H      -0.683175877     0.235623380     2.145678741
H      -2.020628689     1.032458911     0.000000000
H      -1.960796769    -0.757576232     0.000000000
H       0.025239852    -1.959152163    -1.169049307
H       1.516940091    -1.020469302    -1.199429627
H       0.025239852    -1.959152163     1.169049307
H       1.516940091    -1.020469302     1.199429627