6
0 1 def2QZVP
C       0.661440988     0.000000000     0.000000000
C      -0.661440988     0.000000000     0.000000000
H       1.230919703    -0.923110705     0.000000000
H       1.230919703     0.923110705     0.000000000
H      -1.230919703    -0.923110705     0.000000000
H      -1.230919703     0.923110705     0.000000000