14
0 1 def2QZVP
C       1.244999161     0.000000000    -0.663425809
C       0.000000000     0.000000000    -1.489501123
C      -1.244999161     0.000000000    -0.663425809
C      -1.244999161     0.000000000     0.663425809
C       0.000000000     0.000000000     1.489501123
C       1.244999161     0.000000000     0.663425809
H       2.190974767     0.000000000    -1.197556248
H       0.000000000     0.868141917    -2.164152891
H       0.000000000    -0.868141917    -2.164152891
H      -2.190974767     0.000000000    -1.197556248
H      -2.190974767     0.000000000     1.197556248
H       0.000000000    -0.868141917     2.164152891
H       0.000000000     0.868141917     2.164152891
H       2.190974767     0.000000000     1.197556248