16
0 1 def2QZVP
C       0.783775000     0.783775000     0.783775000
C      -0.783775000     0.783775000     0.783775000
C      -0.783775000     0.783775000    -0.783775000
C       0.783775000     0.783775000    -0.783775000
C       0.783775000    -0.783775000     0.783775000
C      -0.783775000    -0.783775000     0.783775000
C      -0.783775000    -0.783775000    -0.783775000
C       0.783775000    -0.783775000    -0.783775000
H       1.411059000    -1.411059000     1.411059000
H       1.411059000     1.411059000     1.411059000
H      -1.411059000     1.411059000     1.411059000
H      -1.411059000    -1.411059000     1.411059000
H      -1.411059000     1.411059000    -1.411059000
H      -1.411059000    -1.411059000    -1.411059000
H       1.411059000    -1.411059000    -1.411059000
H       1.411059000     1.411059000    -1.411059000