11
0 1 def2QZVP
C       0.000000000     1.195547500     0.159153600
C       0.000000000     0.000000000    -0.809523100
C       0.000000000    -1.195547500     0.159153600
N       0.000000000    -0.614760700     1.535779500
N       0.000000000     0.614760700     1.535779500
H      -0.879014100     1.838262200     0.080560400
H       0.879014100     1.838262200     0.080560400
H      -0.880121400     0.000000000    -1.451292300
H       0.880121400     0.000000000    -1.451292300
H       0.879014100    -1.838262200     0.080560400
H      -0.879014100    -1.838262200     0.080560400