12
0 1 def2QZVP
C      -1.204587800     0.695466500     0.000000000
C      -1.204587800    -0.695466600     0.000000000
C      -0.000000000    -1.390963100     0.000000000
C       1.204587900    -0.695466500     0.000000000
C       1.204588000     0.695466500     0.000000000
C      -0.000000000     1.390963100     0.000000000
Cl     -2.682721100    -1.548887400     0.000000000
Cl     -0.000000000    -3.097651700     0.000000000
Cl      2.682721100    -1.548887600     0.000000000
Cl      2.682721200     1.548887500     0.000000000
Cl     -0.000000300     3.097651700     0.000000000
Cl     -2.682721000     1.548887500     0.000000000