20
0 1 def2QZVP
C       3.146854900     0.625485100    -0.240142300
C       2.078089600     1.509820500     0.009913800
C       0.979391000     0.711569200     0.470370700
C       0.979391000    -0.711569200     0.470370700
C       2.078089600    -1.509820500     0.009913800
C       3.146854900    -0.625485100    -0.240142300
C      -0.374094100    -1.151343100     0.470370700
C      -1.210593800     0.000000000     0.470370700
C      -0.374094100     1.151343100     0.470370700
C       1.567303300     2.799551400    -0.240142300
C       0.377560000     3.186122400    -0.240142300
C      -0.793759600     2.442940800     0.009913800
C       1.567303300    -2.799551400    -0.240142300
C       0.377560000    -3.186122400    -0.240142300
C      -0.793759600    -2.442940800     0.009913800
C      -2.178208200    -2.355703000    -0.240142300
C      -2.913510000    -1.343646900    -0.240142300
C      -2.568660000     0.000000000     0.009913800
C      -2.913510000     1.343646900    -0.240142300
C      -2.178208200     2.355703000    -0.240142300