12
0 1 def2QZVP
O      -1.850764500     3.205618100     0.000000000
C      -1.253391400     2.170937600     0.000000000
C      -1.213910100     0.714601400     0.000000000
C      -1.213910100    -0.714601400     0.000000000
C      -1.253391400    -2.170937600     0.000000000
O      -1.850764500    -3.205618100     0.000000000
C      -0.011907900    -1.408577700     0.000000000
C       1.225818100    -0.693976300     0.000000000
C       2.506782800     0.000000000     0.000000000
O       3.701528900     0.000000000     0.000000000
C       1.225818100     0.693976300     0.000000000
C      -0.011907900     1.408577700     0.000000000