18
0 1 def2QZVP
C       0.000000000     0.000000000    -0.674135800
C       0.000000000     0.000000000     0.674135800
C       1.250723800    -0.024822300    -1.529783300
C      -1.250723800     0.024822300    -1.529783300
C       1.250723800     0.024822300     1.529783300
C      -1.250723800    -0.024822300     1.529783300
H       2.170501200    -0.199359100    -0.972299900
H       1.356174100     0.918997800    -2.082123000
H       1.163750800    -0.816373200    -2.285675500
H      -2.170501200     0.199359100    -0.972299900
H      -1.163750800     0.816373200    -2.285675500
H      -1.356174100    -0.918997800    -2.082123000
H       2.170501200     0.199359100     0.972299900
H       1.356174100    -0.918997800     2.082123000
H       1.163750800     0.816373200     2.285675500
H      -2.170501200    -0.199359100     0.972299900
H      -1.163750800    -0.816373200     2.285675500
H      -1.356174100     0.918997800     2.082123000