20
0 1 def2QZVP
C       1.966566600     0.000000000    -0.699864900
C       1.178021200     1.180098900    -1.119582000
C       0.000000000     0.719862300    -1.811085100
C       0.000000000    -0.719862300    -1.811085100
C       1.178021200    -1.180098900    -1.119582000
C      -1.178021200     1.180098900    -1.119582000
C      -1.966566600     0.000000000    -0.699864900
C      -1.178021200    -1.180098900    -1.119582000
C      -0.763725800     1.951489800     0.000000000
C      -1.178021200     1.180098900     1.119582000
C      -1.966566600     0.000000000     0.699864900
C      -0.763725800    -1.951489800     0.000000000
C      -1.178021200    -1.180098900     1.119582000
C       0.000000000    -0.719862300     1.811085100
C       0.000000000     0.719862300     1.811085100
C       0.763725800     1.951489800     0.000000000
C       1.178021200     1.180098900     1.119582000
C       0.763725800    -1.951489800     0.000000000
C       1.178021200    -1.180098900     1.119582000
C       1.966566600     0.000000000     0.699864900