8
0 1 def2QZVP
C      -0.790143240     0.667706810     0.000000000
C      -0.790143240    -0.667706810     0.000000000
C       0.790143240    -0.667706810     0.000000000
C       0.790143240     0.667706810     0.000000000
H      -1.553442350     1.436739060     0.000000000
H      -1.553442350    -1.436739060     0.000000000
H       1.553442350    -1.436739060     0.000000000
H       1.553442350     1.436739060     0.000000000