6
0 1 def2QZVP
C      -0.665243050     0.000000000     0.000000000
C       0.665243050     0.000000000     0.000000000
H      -1.237256300     0.924236640     0.000000000
H      -1.237256300    -0.924236640     0.000000000
H       1.237256300     0.924236640     0.000000000
H       1.237256300    -0.924236640     0.000000000