6
2 1 def2QZVP
C       0.000000000     0.000000000    -0.684733380
C       0.000000000     0.000000000     0.684733380
H       0.679882400     0.679882400    -1.289206170
H      -0.679882400    -0.679882400    -1.289206170
H       0.679882400    -0.679882400     1.289206170
H      -0.679882400     0.679882400     1.289206170