16
0 1 def2QZVP
C      -4.151726620     0.251735770    -0.008386060
H      -3.738803150    -0.763374470    -0.108014850
H      -3.889723520     0.805805900    -0.922210350
H      -5.246836580     0.164826010     0.027359050
C      -3.603781890     0.951033270     1.237889660
H      -4.064075110     1.949734490     1.332337860
H      -3.908895900     0.390837120     2.138504090
C      -2.078115080     1.094889690     1.220882790
H      -1.764846160     1.660076470     0.328621940
H      -1.609155630     0.102765210     1.120790650
C      -1.527384150     1.783630900     2.466388950
H      -1.795159050     1.234403050     3.389629280
H      -1.977138540     2.785621980     2.610183270
C      -0.031036460     1.975423630     2.491331570
H       0.358672460     2.471555540     3.420433530
O       0.732116900     1.642524750     1.607599160