11
0 1 def2QZVP
C      -5.489415210    -0.537970350     0.358465580
H      -6.407534210    -0.816787160    -0.114198900
C      -4.440356750    -0.219829410     0.898450360
C      -3.280926620     0.130799340     1.495458810
C      -2.222895650     0.450027480     2.041357930
C      -1.065575900     0.796610490     2.641450060
C      -0.015499990     1.109203760     3.189111980
C       1.225617280     1.477574780     3.837332450
H       1.836314040     2.122860810     3.186863150
H       1.036094230     2.025772480     4.773353520
H       1.823230300     0.586301630     4.084351550