13
0 1 def2QZVP
C      -4.602544610    -0.414422430    -0.007692280
H      -4.058033370    -1.349092710    -0.199518810
H      -4.809225590     0.067968710    -0.977454220
H      -5.584479400    -0.670888380     0.423261990
C      -3.835474400     0.496099770     0.896347000
H      -4.308953320     1.454174060     1.142279660
C      -2.623399820     0.231438250     1.422267410
H      -2.137130800    -0.722562130     1.184682950
C      -1.896117530     1.132667090     2.295382790
H      -2.390522480     2.081898920     2.530927430
C      -0.682312540     0.881105230     2.817952840
H      -0.180123010     1.596491270     3.468604570
H      -0.155004530    -0.052142220     2.607930990