14
0 1 def2QZVP
C       0.690069980    -3.476437240     4.435010580
O       1.882954800    -3.382880610     4.643369410
C      -0.143759510    -4.727452220     4.579999760
H      -0.781583330    -4.836859930     3.689137930
H       0.549139130    -5.578385980     4.618252310
C      -1.029046560    -4.700374430     5.842171740
H      -1.701922790    -3.831192070     5.790652750
H      -0.388675880    -4.552335410     6.726010440
C      -1.843460190    -5.985729870     6.001021600
H      -2.466558140    -5.948496680     6.905541030
H      -2.511311660    -6.143989230     5.140946120
H      -1.189080870    -6.866350580     6.082114940
O      -0.069986130    -2.404206400     4.051203300
H       0.546487660    -1.643180650     4.011546440