18
0 1 def2QZVP
C      -0.608726860     0.625973070     0.133641880
C       0.764318940     0.609109500     0.011150030
C       1.286077370     1.933623950    -0.140486910
C       0.315972880     2.905655680    -0.130330530
S      -1.253096070     2.222738110     0.065600420
H      -1.275282860    -0.223261790     0.256646150
H       2.346526170     2.155466340    -0.259967840
H       0.435945600     3.980101550    -0.232640960
C       1.609726220    -0.637349950     0.055540910
H       2.299541380    -0.644060340    -0.806466770
H       0.963142880    -1.521532150    -0.062772290
C       2.431842430    -0.782003170     1.350432060
H       3.076776000     0.103463160     1.471462430
H       1.744178000    -0.776228810     2.211556800
C       3.285129990    -2.051723770     1.369860310
H       3.998012620    -2.067403850     0.531117290
H       3.864165690    -2.131426930     2.300790650
H       2.659722880    -2.953689030     1.287989490