19
0 1 def2QZVP
C      -0.929449860     0.158408170    -0.005609220
C       0.542467560     0.175734470    -0.000952410
O      -0.208133600     1.415894250    -0.017885630
H      -1.419475410    -0.062515200    -0.964816370
H       1.037347440    -0.011083420     0.963017200
C       1.378579050    -0.126652490    -1.220538290
H       1.624557320    -1.202578190    -1.214902650
H       0.770667700     0.057633600    -2.119985140
C       2.665407440     0.705065700    -1.273755610
H       3.254633060     0.468791860    -2.170813660
H       2.433205170     1.778858370    -1.292404070
H       3.300518250     0.512569520    -0.396266500
C      -1.758661020    -0.134856210     1.220867550
H      -1.978008510    -1.216304520     1.241429170
H      -1.156031730     0.086193410     2.115634080
C      -3.065741400     0.665846170     1.253581170
H      -3.649333290     0.437520210     2.156360750
H      -2.860129900     1.745136800     1.245374980
H      -3.695652380     0.435893340     0.381284000