20
0 1 def2QZVP
C      -4.682357990     0.216985650    -0.025135680
H      -4.343126990    -0.829357210    -0.063400410
H      -4.342801710     0.707690690    -0.949992400
H      -5.781727470     0.211053520    -0.035448960
C      -4.134803140     0.931161890     1.213212920
H      -4.519566130     1.965048010     1.242726720
H      -4.519807580     0.439460930     2.122852260
C      -2.603541350     0.962504990     1.268509490
H      -2.217422020     1.453879610     0.357711870
H      -2.217630660    -0.072245720     1.239159560
C      -2.044720040     1.675976970     2.503728480
H      -2.430437320     1.184708430     3.414745630
H      -2.431028940     2.710593960     2.532881320
C      -0.513449450     1.708101510     2.558576990
H      -0.128937420     2.195904850     1.646623850
H      -0.128182710     0.674297450     2.533598870
C       0.034079670     2.428324410     3.793432570
H      -0.305380760     1.942285760     4.720790180
H       1.133449700     2.434432800     3.803674140
H      -0.305272890     3.474798780     3.826393910