13
0 1 def2QZVP
C      -4.110348420     0.451457190     0.059549270
H      -3.931306250    -0.605830440    -0.188355620
H      -3.918394730     1.043169800    -0.848393220
H      -5.175526470     0.559086090     0.307339340
C      -3.225054570     0.909754470     1.219096310
H      -3.436251680     1.961190530     1.466570270
H      -3.451064960     0.326984570     2.125198960
C      -1.722318750     0.767258540     0.897695430
H      -1.488494480     1.338891770    -0.017395400
H      -1.496134040    -0.287206780     0.663025500
C      -0.850050730     1.217324780     1.975806240
C      -0.143018860     1.606335170     2.879693270
H       0.485697540     1.944184210     3.676585140