16
0 1 def2QZVP
C      -0.361526770    -0.198046420     0.064107850
C       1.107446950    -0.198481510    -0.013049590
O       0.371400970     1.040652430     0.123865980
H      -0.957988890    -0.344923370    -0.842380600
H      -0.846885400    -0.496885000     0.999572800
H       1.556628760    -0.321710940    -1.007905150
C       1.983528100    -0.598428300     1.147444230
H       2.199264270    -1.679127410     1.068990440
H       1.419899300    -0.453741790     2.083709950
C       3.300732520     0.187991920     1.203973330
H       3.068977910     1.263364850     1.257664530
H       3.852838940     0.037905980     0.260848220
C       4.184864550    -0.213598080     2.386844320
H       4.450309130    -1.281103660     2.344176690
H       5.120794530     0.362307480     2.401145880
H       3.671130750    -0.038565930     3.344264840