16
0 1 def2QZVP
C      -5.309392870    -0.200336450     0.016648830
H      -4.907086620     0.253423800    -0.909658900
H      -6.411113940    -0.102354020    -0.009285490
C      -4.759667700     0.534581400     1.231110810
H      -5.169679690     1.558988030     1.222011640
H      -5.153501900     0.045052520     2.137767630
C      -3.229003330     0.579618430     1.278196130
H      -2.841908390     1.103705230     0.388529490
H      -2.825531550    -0.442904720     1.248427580
C      -2.705685320     1.282890490     2.520494990
H      -3.054353140     0.750629200     3.426690650
H      -3.104070750     2.315830490     2.566909730
O      -4.928666480    -1.581183110     0.111394090
H      -5.212633740    -2.028622530    -0.702554060
O      -1.272137020     1.296248560     2.458416420
H      -0.941309180     1.718645090     3.268377780