14
0 1 def2QZVP
C      -1.962125450    -1.304622580    -1.205272700
C      -1.345686290    -1.858222570    -0.080998100
C      -1.528662120    -1.220435940     1.145467220
C      -2.312528190    -0.068146600     1.192745320
C      -2.892855610     0.419134710     0.011393220
N      -2.715342550    -0.196549120    -1.175183310
H      -1.066302350    -1.612043030     2.052957200
H      -1.844999620    -1.773892720    -2.186970690
H      -0.740761280    -2.760816940    -0.169102250
H      -2.473852870     0.456169570     2.136220300
C      -3.755803960     1.653063980     0.003579430
H      -3.680234500     2.209871660     0.946334780
H      -3.469556380     2.309927920    -0.828839750
H      -4.810963420     1.379818520    -0.152113690