16
0 1 def2QZVP
C      -6.048117170     2.784729190    -0.253484310
H      -5.651123060     2.149968730    -1.059377450
H      -5.745912990     3.820654160    -0.467107830
H      -7.145000230     2.739869010    -0.301480540
C      -5.533848570     2.328958180     1.114489900
H      -5.975255000     2.961074750     1.903042380
H      -5.882291300     1.301863380     1.315884500
C      -4.002479360     2.376795010     1.213725700
H      -3.647117030     3.400953250     1.019276950
H      -3.553142230     1.739818010     0.438413930
C      -3.522500380     1.926120720     2.581679550
H      -3.803889540     0.885279140     2.800353490
H      -3.897301970     2.551016750     3.401785070
N      -2.005780970     1.942456690     2.743664290
O      -1.583751790     1.888559740     3.898622050
O      -1.311009650     1.985323200     1.730140620