13
0 1 def2QZVP
C      -4.921542440    -0.935368850     0.034081460
H      -4.512061840    -1.952449720    -0.062805350
H      -4.695475470    -0.397182880    -0.898932670
H      -6.014295490    -1.023444480     0.109379250
C      -4.336294390    -0.209280410     1.247134510
H      -4.770360270     0.798788910     1.339175550
H      -4.612603490    -0.749947010     2.169584560
C      -2.814617500    -0.077313070     1.187229110
H      -2.536097470     0.483347860     0.279491110
H      -2.370567170    -1.089920510     1.079810170
N      -2.308975960     0.673676410     2.346438800
H      -2.495694120     0.151075730     3.205942870
H      -1.293827410     0.775765680     2.288150360