21
0 1 def2QZVP
C      -2.905584130    -2.177867060    -0.072794430
C      -1.370827580    -2.202505410    -0.060456710
C      -0.788994650    -0.782008220    -0.001815120
C      -1.329182580     0.042830890     1.186459110
C      -2.872958620     0.029375880     1.176338220
C      -3.460498440    -1.389023480     1.121472100
H       0.311574170    -0.821732150     0.039946480
H      -1.022668870    -2.787580610     0.807824410
H      -0.990157070    -2.724674990    -0.952480110
H      -3.251589980    -1.705795240    -1.009931750
H      -3.306232230    -3.203889170    -0.074307430
H      -3.257352320     0.568504620     2.057512070
H      -3.223832140     0.589252630     0.291492670
H      -3.227590770    -1.929646240     2.054833380
H      -4.559095580    -1.334942910     1.066628720
H      -1.045715340    -0.257557430    -0.939273240
C      -0.748324750    -0.418272550     2.532159610
H       0.350248650    -0.356589410     2.526494110
H      -1.114710680     0.214414070     3.354497520
H      -1.017677260    -1.456677950     2.772065260
H      -1.006003170     1.087871780     1.038186310