15
0 1 def2QZVP
C       0.911911850     0.421473560     0.001367040
H       1.219161010     0.991483760    -0.888969340
H       1.220925450     0.989329420     0.892472340
C       1.549352080    -0.965866090    -0.000971320
H       1.251580670    -1.538602540    -0.890469450
H       2.645480230    -0.880913420    -0.002066070
H       1.253577420    -1.540769710     0.887793890
C      -1.377062440     2.038454740     0.003150440
H      -0.943319820     2.518843980    -0.887237530
H      -0.943844010     2.518480850     0.893990490
C      -2.897565730     2.176863620     0.002725110
H      -3.339751100     1.705509130     0.891546300
H      -3.182971280     3.238657810     0.003078370
H      -3.339148780     1.706216080    -0.886764800
S      -0.909996540     0.271284030     0.002759530