29
0 1 def2QZVP
C      -6.155506520    -0.708961080    -0.137236460
H      -5.861499200    -1.768647790    -0.183189030
H      -5.771487180    -0.220668650    -1.045855180
H      -7.253518760    -0.666345200    -0.175033550
C      -5.608855210    -0.037202330     1.125079710
H      -5.948166680     1.012247190     1.160532930
H      -6.038106490    -0.524104370     2.017293580
C      -4.079757830    -0.074540850     1.218520960
H      -3.739382090    -1.124941050     1.183841030
H      -3.649638920     0.411302920     0.324629580
C      -3.521284140     0.597191910     2.477437320
H      -3.948229490     0.108270570     3.370983190
H      -3.865893080     1.646125020     2.513679480
C      -1.991761340     0.564761670     2.566253920
H      -1.564959630     1.056684140     1.673889980
H      -1.653119160    -0.484416710     2.525706270
C      -1.440319760     1.245598310     3.825211170
H      -1.844520110     0.739454660     4.720104390
H      -1.825941610     2.278860760     3.863692210
C       0.092676550     1.285434980     3.916726890
H       0.498551970     1.767754080     3.009462350
H       0.382468470     1.936455870     4.759381780
C       0.763128000    -0.081406520     4.104090680
H       0.514199710    -0.740688460     3.256901870
H       0.343003970    -0.567151120     5.001789880
C       2.285384250     0.013511150     4.238079350
H       2.570743950     0.638182900     5.098300670
H       2.742106470    -0.976814330     4.378500720
H       2.735842170     0.463359910     3.340195580