18
0 1 def2QZVP
C      -0.095691960     0.507727940     0.210318360
O       1.308689000     0.474829120    -0.148708140
C       1.781777960     1.748075910    -0.366461500
C       0.652071030     2.761278930    -0.157219580
C      -0.606634170     1.884507810    -0.238028780
H      -0.584443200    -0.333931800    -0.295867870
H      -0.175131780     0.361086820     1.298814510
H       0.702328680     3.501116720    -0.969224730
H      -1.428153090     2.248224130     0.394003900
H      -0.973104590     1.831556290    -1.272795190
C       0.813450680     3.497684480     1.194323630
H      -0.109669030     4.075999160     1.362998890
H       0.864436890     2.756962120     2.010473730
C       2.025138190     4.428633360     1.259492890
H       2.083101480     4.920085560     2.240797180
H       2.962318740     3.882448850     1.091563010
H       1.958742970     5.215683420     0.493352130
O       2.935733410     1.952531430    -0.656524370