6
0 1 def2QZVP
C      -3.169640770    -0.010798050     0.051745200
H      -3.156228280    -1.101773920     0.018673760
H      -3.155956670     0.506060290    -0.909667540
C      -3.200480840     0.655501100     1.205640890
H      -3.213901050     1.746477670     1.238672430
H      -3.214173650     0.138668140     2.167052660