12
0 1 def2QZVP
C      -1.047379180    -0.324881630    -0.000089400
C       0.315744400    -0.318962410     0.000068160
C       0.709298830     1.060515070     0.000045900
C      -0.440333900     1.802954720    -0.000151820
O      -1.529181500     0.960215390    -0.000204480
H      -1.796363340    -1.108002030    -0.000139120
H       0.963673320    -1.189288350     0.000191120
H       1.721250510     1.452958130     0.000190530
C      -0.725985830     3.260831510    -0.000189680
H      -1.305269710     3.559314970    -0.887611340
H      -1.305259460     3.559424860     0.887205300
H       0.215683920     3.822811730    -0.000225210