15
0 1 def2QZVP
C      -0.509738450    -4.574091930     4.820782560
H       0.123906750    -4.815247910     5.687169640
H       0.155267350    -4.381665970     3.966913270
H      -1.114673190    -5.462825630     4.589887930
C      -1.401992010    -3.355382750     5.110483990
H      -2.040141450    -3.147233480     4.239501130
H      -2.087677750    -3.610350580     5.938282160
C      -0.609016810    -2.138691950     5.496032400
H       0.061489390    -2.280764130     6.351555630
C      -0.619563240    -0.927073930     4.919476980
H       0.038653470    -0.163506470     5.347818320
C      -1.438166190    -0.474826420     3.746669480
H      -2.116737320     0.344749030     4.034749320
H      -0.791850210    -0.075169510     2.948718130
H      -2.049030620    -1.278189400     3.316027970