17
0 1 def2QZVP
C      -5.188152700    -0.617491010     0.046131770
H      -4.838470490    -1.659329800     0.099773150
H      -4.853332430    -0.204492870    -0.917176560
H      -6.287046160    -0.635053220     0.037627430
C      -4.652884800     0.207951210     1.218677780
H      -5.044875590     1.237326460     1.156238970
H      -5.032959220    -0.206277110     2.167501180
C      -3.121867620     0.254709580     1.265261060
H      -2.724457230    -0.770573070     1.347310940
H      -2.733610000     0.668511940     0.321472940
C      -2.595158140     1.097578820     2.443933520
H      -2.958698450     0.692298320     3.397101410
H      -2.958445210     2.132228310     2.343376450
O      -0.399418810     0.518818150     3.317138750
O      -0.543373550     1.883280360     1.517293410
H       0.427893000     1.809364990     1.626706790
C      -1.086448760     1.114227390     2.511394600