14
0 1 def2QZVP
C       0.057282960     0.461804010     0.573734360
H       0.642783660    -0.466779840     0.539064130
H       0.676187460     1.245435930     1.029221950
H      -0.157575730     0.772185240    -0.457350070
C      -1.229935280     0.249146550     1.364928600
H      -1.015790970    -0.095586200     2.390096560
H      -1.856861000    -0.538935600     0.919392530
C      -2.071965630     1.504323910     1.482202860
O      -1.751611190     2.615749050     1.110525840
O      -3.264473160     1.229137050     2.081902890
C      -4.135012630     2.368429330     2.258674200
H      -5.033686610     1.976286790     2.745039080
H      -3.653609020     3.127981310     2.888599000
H      -4.384260310     2.817298460     1.288262070