12
0 1 def2QZVP
C      -5.022723190    -1.012583480     0.000550310
H      -4.682873860    -2.058377160    -0.034404720
H      -4.681589960    -0.519297600    -0.921843290
H      -6.121566610    -1.018939130    -0.011759410
C      -4.491703890    -0.295349150     1.245186770
H      -4.870820510     0.738912910     1.271910140
H      -4.872021280    -0.790078010     2.153292230
C      -2.963640990    -0.271785690     1.288371560
H      -2.563982050     0.250626940     0.407773230
H      -2.564883900    -1.296118440     1.298594260
S      -2.409997110     0.603668200     2.808791730
H      -1.080797210     0.484895220     2.587617830