13
0 1 def2QZVP
C      -1.281911730    -1.498330080     0.000076960
C       0.099198610    -1.488804690     0.000360370
C       0.514446730    -0.124882590    -0.000175990
C      -0.620262730     0.671143880    -0.000790740
N      -1.703403330    -0.184874620    -0.000754940
H      -2.671267180     0.111885430    -0.001137530
H      -1.992508600    -2.317440880     0.000271340
H       0.739233780    -2.365184340     0.000874350
H       1.536155740     0.243174730     0.000145560
C      -0.781725770     2.155720700    -0.000289080
H      -1.324470580     2.517497120    -0.889095260
H      -1.325776740     2.516296280     0.888203880
H       0.204341620     2.636088860     0.000795340