19
0 1 def2QZVP
C      -2.766450750    -1.732147360     0.229751350
C      -1.323032260    -2.143951210     0.153902410
C      -0.673386510    -0.688819090     0.203361490
C      -1.244115160     0.270775220     1.284554650
C      -2.837918890     0.287822610     1.421546420
C      -3.092970080    -1.189494590     1.444172840
H       0.415886740    -0.782009540     0.349644120
H      -0.994820680    -2.734293920     1.020576270
H      -1.006000960    -2.664123040    -0.763035300
H      -3.032757260    -1.098549790    -0.631821400
H      -0.825308830     0.000921540     2.266616730
H      -0.898191790     1.294995560     1.072245640
H      -3.138133620     0.859256550     2.314960730
H      -3.265129460     0.767460850     0.528179860
H      -0.818389440    -0.233903280    -0.790022290
C      -2.904460180    -1.924353710     2.742301920
H      -3.847704550    -1.895661440     3.314635920
H      -2.660885730    -2.983434960     2.578854230
H      -2.136847240    -1.477373510     3.396298450