20
0 1 def2QZVP
C      -5.388537290    -0.084442240     0.010151160
H      -5.182222580    -1.164100640    -0.044549600
H      -4.999618170     0.374084460    -0.911526670
H      -6.479864490     0.045953110     0.011944390
C      -4.749134590     0.539946200     1.252553990
H      -5.000806140     1.612749130     1.299093290
H      -5.182334930     0.086658460     2.159781870
C      -3.225047740     0.379174800     1.289913880
H      -2.790960940     0.831755380     0.380983810
H      -2.973197240    -0.694960300     1.244808360
C      -2.581139170     1.003361390     2.533663310
H      -2.999579460     0.547614640     3.445087020
H      -2.818788500     2.078895000     2.581994570
C      -1.069533610     0.826482030     2.548166020
H      -0.600666570     1.333038730     1.686299220
H      -0.792846320    -0.237154370     2.508996750
O      -0.501084580     1.342153800     3.778012600
C       0.257161400     2.462639190     3.696514860
H       0.366983170     2.833037650     2.649664890
O       0.756647860     2.984540280     4.658830040