17
0 1 def2QZVP
C      -2.539214710    -1.313854470     0.011674170
C      -1.152436550    -0.992426240    -0.468204110
C      -0.377220110    -0.055746610     0.089823850
C      -0.793142130     0.806793680     1.253711510
C      -2.183623150     0.471043430     1.729144480
C      -2.963855580    -0.463685680     1.174944110
H      -0.774610050    -1.568733510    -1.317442840
H      -3.261691350    -1.203720410    -0.820396350
H      -2.605488010    -2.385580010     0.283298590
H      -0.089097410     0.617135820     2.090074140
H      -2.560617130     1.052342820     2.576424300
H      -3.965839420    -0.637264480     1.577371180
H       0.624412380     0.123073210    -0.313630270
C      -0.663982750     2.309039100     0.914081830
H      -0.924436110     2.931440170     1.782974400
H       0.365307300     2.557335790     0.615957290
H      -1.335684550     2.576997820     0.086082930