6
1 2 def2QZVP
C       0.694189882     0.000000002    -0.000000065
C      -0.694189882     0.000000000     0.000000062
H      -1.256636396    -0.903393088     0.230203337
H      -1.256636209     0.903393094    -0.230203768
H       1.256636224     0.903393075     0.230203785
H       1.256636380    -0.903393106    -0.230203320