9
0 1 def2QZVP
C      -0.098984867    -1.104447678     0.000000000
C      -0.495961203     0.359964792     0.000000000
O      -1.659733158     0.714330260     0.000000000
N       0.534091400     1.254354395     0.000000000
H      -0.532864983    -1.580266767     0.878691925
H       0.978038242    -1.267911924     0.000000000
H      -0.532864983    -1.580266767    -0.878691925
H       1.494832122     0.969183725     0.000000000
H       0.313447430     2.235059964     0.000000000