9
0 1 def2QZVP
C      -0.434516496     0.752604647     0.000000000
C      -0.434516496    -0.752604647     0.000000000
C       0.869032991     0.000000000     0.000000000
H      -0.727609966     1.260257429     0.908130768
H      -0.727609966     1.260257429    -0.908130768
H      -0.727609966    -1.260257429     0.908130768
H      -0.727609966    -1.260257429    -0.908130768
H       1.455219932     0.000000000    -0.908130768
H       1.455219932     0.000000000     0.908130768