7
0 1 def2QZVP
C      -0.423093943    -0.555923800     0.000000000
C       0.320219415     0.749585162     0.000000000
O      -0.148012143     1.832151152     0.000000000
CL      2.144750335     0.539430769     0.000000000
H      -1.066630938    -0.576134747     0.880432319
H       0.239398213    -1.412973789     0.000000000
H      -1.066630938    -0.576134747    -0.880432319