7
0 1 def2QZVP
C      -0.262419575    -0.594154539     0.000000000
C       0.318439918     0.790687384     0.000000000
O      -0.328572043     1.806533644     0.000000000
H      -1.349373260    -0.558699807     0.000000000
H       0.097021348    -1.139802130     0.876677778
H       0.097021348    -1.139802130    -0.876677778
H       1.427882264     0.835237578     0.000000000