9
0 1 def2QZVP+def2ECP
C       0.000000000     0.000000000     2.313014000
I       0.000000000     0.000000000     0.180166000
H       0.000000000     1.028303000     2.657744000
H       0.890536000    -0.514151000     2.657744000
H      -0.890536000    -0.514151000     2.657744000
H       0.000000000    -0.942243000    -3.396054000
H       0.816006000     0.471121000    -3.396054000
H      -0.816006000     0.471121000    -3.396054000
N       0.000000000     0.000000000    -3.030275000