15
0 1 def2QZVP+def2ECP
P       0.000000000     0.000000000     4.198438000
C       0.000000000     0.000000000     5.723559000
H       0.000000000     0.000000000     6.795243000
I       0.000000000     0.000000000     0.434814000
C       0.000000000     0.000000000    -1.660899000
C       0.000000000     1.205543000    -2.346244000
C       0.000000000     1.199222000    -3.733517000
C       0.000000000     0.000000000    -4.429003000
C       0.000000000    -1.199222000    -3.733517000
C       0.000000000    -1.205543000    -2.346244000
H       0.000000000     2.142581000    -1.805804000
H       0.000000000     2.139722000    -4.269458000
H       0.000000000     0.000000000    -5.511263000
H       0.000000000    -2.139722000    -4.269458000
H       0.000000000    -2.142581000    -1.805804000