9
0 1 def2QZVP+def2ECP
I       0.000000000     0.000000000     0.959265000
C       0.000000000     0.000000000     3.087655000
H       0.000000000     1.030172000     3.424244000
H       0.892155000    -0.515086000     3.424244000
H      -0.892155000    -0.515086000     3.424244000
F       0.000000000     0.000000000    -2.439388000
C       0.000000000     0.000000000    -3.715682000
C       0.000000000     0.000000000    -4.904201000
H       0.000000000     0.000000000    -5.965896000