10
0 1 def2QZVP+def2ECP
C       1.063213000     2.394112000     0.000000000
I       0.000000000     0.549601000     0.000000000
H       0.786114000     2.944863000     0.891582000
H       2.125112000     2.176413000     0.000000000
H       0.786114000     2.944863000    -0.891582000
H      -0.074575000    -3.863191000    -0.894505000
H      -0.074575000    -3.863191000     0.894505000
F      -1.165488000    -2.418227000     0.000000000
H       0.845164000    -2.615977000     0.000000000
C      -0.047207000    -3.242210000     0.000000000