15
0 1 def2QZVP+def2ECP
N       0.000000000     0.000000000     4.109307000
C       0.000000000     0.000000000     5.251883000
H       0.000000000     0.000000000     6.319183000
Br      0.000000000     0.000000000     0.919924000
C       0.000000000     0.000000000    -0.970035000
C       0.000000000     1.204962000    -1.654689000
C       0.000000000     1.198994000    -3.041574000
C       0.000000000     0.000000000    -3.738000000
C       0.000000000    -1.198994000    -3.041574000
C       0.000000000    -1.204962000    -1.654689000
H       0.000000000     2.137739000    -1.107101000
H       0.000000000     2.139531000    -3.577587000
H       0.000000000     0.000000000    -4.820247000
H       0.000000000    -2.139531000    -3.577587000
H       0.000000000    -2.137739000    -1.107101000