8
0 1 def2QZVP+def2ECP
N       0.000000000     0.000000000     3.415281000
C       0.000000000     0.000000000     4.557070000
H       0.000000000     0.000000000     5.624831000
I       0.000000000     0.000000000     0.309915000
C       0.000000000     0.000000000    -1.826797000
F       0.000000000     1.244435000    -2.308849000
F       1.077712000    -0.622217000    -2.308849000
F      -1.077712000    -0.622217000    -2.308849000