6
0 1 def2QZVP+def2ECP
F      -0.657366000     2.223959000     0.000000000
I       0.000000000     0.393005000     0.000000000
O       0.818063000    -2.050427000     0.000000000
C       0.014970000    -2.949000000     0.000000000
H      -1.067503000    -2.751850000     0.000000000
H       0.349471000    -3.995649000     0.000000000