6
0 1 def2QZVP+def2ECP
Br      0.000000000     0.000000000     1.648362000
Br      0.000000000     0.000000000    -0.665027000
N       0.000000000     0.000000000    -3.334881000
H       0.000000000     0.945707000    -3.690857000
H      -0.819006000    -0.472853000    -3.690857000
H       0.819006000    -0.472853000    -3.690857000