9
0 1 def2QZVP+def2ECP
C       1.132713000     2.266100000     0.000000000
I       0.000000000     0.461816000     0.000000000
H       1.749184000     2.283461000     0.891542000
H       0.439256000     3.099395000     0.000000000
H       1.749184000     2.283461000    -0.891542000
O      -1.219786000    -2.471129000     0.000000000
C      -0.239853000    -3.163074000     0.000000000
H       0.774926000    -2.727378000     0.000000000
H      -0.311418000    -4.264298000     0.000000000