13
0 1 def2QZVP+def2ECP
N       0.000000000     0.000000000     3.716503000
C       0.000000000     0.000000000     4.857258000
H       0.000000000     0.000000000     5.925157000
N       0.000000000     0.000000000    -1.177232000
O       0.000000000     2.280463000    -1.583208000
O       0.000000000    -2.280463000    -1.583208000
C       0.000000000    -1.144745000    -1.970477000
C       0.000000000    -0.661512000    -3.392201000
C       0.000000000     0.661512000    -3.392201000
H       0.000000000     1.350667000    -4.222380000
H       0.000000000    -1.350667000    -4.222380000
C       0.000000000     1.144745000    -1.970477000
I       0.000000000     0.000000000     0.854427000