6
0 1 def2QZVP+def2ECP
N       0.000000000     0.000000000    -2.203939000
H       0.000000000     0.948700000    -2.552491000
H       0.821598000    -0.474350000    -2.552491000
H      -0.821598000    -0.474350000    -2.552491000
Br      0.000000000     0.000000000     0.152975000
F       0.000000000     0.000000000     1.970104000