7
0 1 def2QZVP+def2ECP
Br      2.281613000    -0.225049000    -0.000038000
Br      0.054271000     0.332665000     0.000072000
O      -2.585759000     0.806393000    -0.000177000
P      -3.340098000    -0.479120000     0.000002000
H      -3.112183000    -1.336431000     1.096206000
H      -3.111992000    -1.336851000    -1.095836000
H      -4.744209000    -0.357636000    -0.000145000