13
0 1 def2QZVP+def2ECP
F       0.000000000     0.000000000     3.351562000
I       0.000000000     0.000000000     1.370737000
C       0.000000000     1.148358000    -1.730694000
C       0.000000000     1.193458000    -3.112480000
C       0.000000000     0.000000000    -3.815346000
C       0.000000000    -1.193458000    -3.112480000
C       0.000000000    -1.148358000    -1.730694000
N       0.000000000     0.000000000    -1.057254000
H       0.000000000     2.051283000    -1.131944000
H       0.000000000     2.147447000    -3.620355000
H       0.000000000     0.000000000    -4.897575000
H       0.000000000    -2.147447000    -3.620355000
H       0.000000000    -2.051283000    -1.131944000