6
0 1 def2QZVP+def2ECP
Br     -0.944758000    -1.654252000     0.000000000
Br      0.000000000     0.431831000     0.000000000
O       1.406705000     2.803092000     0.000000000
C       2.585545000     2.572416000     0.000000000
H       2.971600000     1.538965000     0.000000000
H       3.328036000     3.386542000     0.000000000