10
0 1 def2QZVP+def2ECP
C      -2.762156000    -0.692968000     0.006172000
I      -0.815254000     0.173132000    -0.001895000
H      -3.257069000    -0.410488000     0.928556000
H      -2.660640000    -1.770600000    -0.055906000
H      -3.307874000    -0.313161000    -0.850245000
O       2.239270000     0.923492000     0.007392000
P       2.798642000    -0.454150000    -0.000447000
H       2.535571000    -1.235400000    -1.145881000
H       2.374400000    -1.313458000     1.035140000
H       4.203210000    -0.550763000     0.099320000