8
0 1 def2QZVP+def2ECP
C       0.000000000     0.000000000     3.016180000
I       0.000000000     0.000000000     0.887253000
H       0.000000000     1.030247000     3.352584000
H      -0.892220000    -0.515124000     3.352584000
H       0.892220000    -0.515124000     3.352584000
P       0.000000000     0.000000000    -2.883216000
C       0.000000000     0.000000000    -4.408482000
H       0.000000000     0.000000000    -5.480125000