13
0 1 def2QZVP+def2ECP
Br      0.000000000     0.000000000     3.085849000
Br      0.000000000     0.000000000     0.765138000
C       0.000000000     1.142949000    -2.491199000
C       0.000000000     1.192801000    -3.875067000
C       0.000000000     0.000000000    -4.578997000
C       0.000000000    -1.192801000    -3.875067000
C       0.000000000    -1.142949000    -2.491199000
N       0.000000000     0.000000000    -1.813080000
H       0.000000000     2.050443000    -1.897651000
H       0.000000000     2.147023000    -4.383490000
H       0.000000000     0.000000000    -5.661508000
H       0.000000000    -2.147023000    -4.383490000
H       0.000000000    -2.050443000    -1.897651000