8
0 1 def2QZVP+def2ECP
PB     -0.002791468    -2.151475623     0.000000000
H      -0.055723873    -0.428985282     0.000000000
H      -0.796074379    -2.750170728     1.406856560
H      -0.796074379    -2.750170728    -1.406856560
H       1.639196844    -2.672439898     0.000000000
TE      0.011067031     2.813201753     0.000000000
H       1.154656336     3.980924535     0.000000000
H      -1.154256112     3.959115972     0.000000000