8
0 1 def2QZVP+def2ECP
SB     -0.722093571     1.884810985     0.000000000
H      -0.220811227     2.948533763     1.203851173
H      -0.220811227     2.948533763    -1.203851173
H       0.780130417     1.121129584     0.000000000
SB      0.789975516    -2.076131963     0.000000000
H      -0.284379676    -1.594088517     1.202126820
H       0.162369444    -3.638699099     0.000000000
H      -0.284379676    -1.594088517    -1.202126820