10
0 1 def2QZVP+def2ECP
TE     -0.104163680    -1.341620380    -1.427590980
TE      0.104163680     1.341620380    -1.427590980
C      -1.371460530     1.765045710     0.158059560
C       1.371460530    -1.765045710     0.158059560
H       2.342285350    -1.346207760    -0.103976060
H       1.041759170    -1.349752720     1.109623140
H       1.472267140    -2.847670910     0.263884330
H      -2.342285350     1.346207760    -0.103976060
H      -1.041759170     1.349752720     1.109623140
H      -1.472267140     2.847670910     0.263884330