7
0 1 def2QZVP+def2ECP
SB     -0.043444278    -1.169291715     0.000000000
H       0.714563097    -2.048456030     1.211374020
H       0.714563097    -2.048456030    -1.211374020
H      -1.376479832    -2.189777373     0.000000000
O       0.358108901     2.638980721     0.000000000
H       0.110786321     1.710304150     0.000000000
H      -0.478097307     3.106696277     0.000000000