18
0 1 def2QZVP+def2ECP
AS     -1.149753090     0.403814780    -1.024615960
AS      1.149753090    -0.403814780    -1.024615960
C      -1.385198450     0.958156020     0.850884820
C      -1.994937050    -1.368579410    -0.869346600
C       1.994937050     1.368579410    -0.869346600
C       1.385198450    -0.958156020     0.850884820
H      -0.741572340     1.812396190     1.063475210
H      -1.163790710     0.150688740     1.548402910
H      -2.422269380     1.271157150     0.982870940
H      -1.811347480    -1.932375220    -1.783964170
H      -1.611746310    -1.928619540    -0.015384250
H      -3.070912360    -1.232704250    -0.752322910
H       1.811347480     1.932375220    -1.783964170
H       3.070912360     1.232704250    -0.752322910
H       1.611746310     1.928619540    -0.015384250
H       0.741572340    -1.812396190     1.063475210
H       2.422269380    -1.271157150     0.982870940
H       1.163790710    -0.150688740     1.548402910