26
0 1 def2QZVP+def2ECP
SN      0.000000000     0.000000000    -1.385561940
SN      0.000000000     0.000000000     1.385561940
C       1.768388540    -1.020979600    -2.172482710
C       0.000000000     2.041959200    -2.172482710
C      -1.768388540    -1.020979600    -2.172482710
C       1.768388540     1.020979600     2.172482710
C       0.000000000    -2.041959200     2.172482710
C      -1.768388540     1.020979600     2.172482710
H       1.768224710    -1.020885010    -3.264391000
H       2.688926990    -0.535747990    -1.842918020
H       1.808434870    -2.060805080    -1.842918020
H       0.000000000    -2.041770030     3.264391000
H      -0.880492120    -2.596553080     1.842918020
H       0.880492120    -2.596553080     1.842918020
H      -1.768224710     1.020885010     3.264391000
H      -1.808434870     2.060805080     1.842918020
H      -2.688926990     0.535747990     1.842918020
H      -1.808434870    -2.060805080    -1.842918020
H      -2.688926990    -0.535747990    -1.842918020
H      -1.768224710    -1.020885010    -3.264391000
H       1.768224710     1.020885010     3.264391000
H       2.688926990     0.535747990     1.842918020
H       1.808434870     2.060805080     1.842918020
H      -0.880492120     2.596553080    -1.842918020
H       0.880492120     2.596553080    -1.842918020
H       0.000000000     2.041770030    -3.264391000