7
0 1 def2QZVP+def2ECP
TE      0.852186043    -1.633706080     0.000000000
H       0.889520100    -3.277103499     0.000000000
H      -0.776667477    -1.674660305     0.000000000
N      -0.174753825     1.370898181     0.000000000
H      -0.718273810     1.627334359    -0.812259571
H      -0.718273810     1.627334359     0.812259571
H       0.646262780     1.959902984     0.000000000