8
0 1 def2QZVP+def2ECP
SB      0.797244287    -1.531990520     0.000000000
H      -0.345925747    -1.319458127     1.212678047
H       0.528473844    -3.205694409     0.000000000
H      -0.345925747    -1.319458127    -1.212678047
N      -0.060843527     1.578042201     0.000000000
H      -0.631187118     1.771880223     0.811226295
H       0.689351126     2.254798536     0.000000000
H      -0.631187118     1.771880223    -0.811226295