6
0 1 def2QZVP+def2ECP
TE      0.791379264     2.947161455     0.000000000
H       0.529235444     1.334136738     0.000000000
H      -0.821275087     3.206621096     0.000000000
TE     -0.112730460    -1.729564811     0.000000000
H       0.961294975    -2.960110645     0.000000000
H      -1.347904136    -2.798243834     0.000000000