10
0 1 def2QZVP+def2ECP
PB      0.000000000     0.000000000    -2.232699678
H      -0.992636018     0.992636018    -1.233760029
H       0.992636018    -0.992636018    -1.233760029
H      -0.994489502    -0.994489502    -3.228289000
H       0.994489502     0.994489502    -3.228289000
PB      0.000000000     0.000000000     2.232699678
H      -0.994489502     0.994489502     3.228289000
H       0.994489502    -0.994489502     3.228289000
H      -0.992636018    -0.992636018     1.233760029
H       0.992636018     0.992636018     1.233760029