8
0 1 def2QZVP
S      -2.196767090     0.909930720    -0.492485510
S      -2.196767090    -0.909930720     0.492485510
S      -0.909930720    -2.196767090    -0.492485510
S       0.909930720    -2.196767090     0.492485510
S       2.196767090    -0.909930720    -0.492485510
S       2.196767090     0.909930720     0.492485510
S       0.909930720     2.196767090    -0.492485510
S      -0.909930720     2.196767090     0.492485510