13
0 1 def2QZVP
O      -1.324051010     0.964686700     0.882122370
P      -1.554036030    -0.153400220    -0.279838810
O      -2.692384200     0.079115440    -1.164032640
O      -0.087282010     0.006679590    -0.985469160
P       1.281226470    -0.220227690    -0.144352310
O       1.162229680    -1.353322360     0.794833110
O       2.404892810    -0.413544680    -1.235100360
O       1.614577910     1.218023000     0.456573830
O      -1.503675690    -1.563476680     0.425873510
H      -2.161101790     1.239770490     1.291615390
H       2.579551610     0.377805620    -1.773061380
H       0.858442590     1.563298600     0.970966540
H      -0.578390330    -1.745407810     0.759869910