11
0 1 def2QZVP
O      -2.089382710     0.824263150    -0.794518750
S      -1.203956950    -0.202379540     0.037936840
O      -0.969364830     0.414698920     1.318359020
O      -1.728156810    -1.525564120    -0.098894230
O       0.167340800    -0.068236500    -0.841569610
S       1.657709050    -0.264327170    -0.053626820
O       1.664025440     1.028176210     0.856750610
O       1.559930900    -1.455899290     0.733342800
O       2.606895620    -0.063316480    -1.094237680
H      -2.538174470     0.338751040    -1.514961490
H       0.873133940     0.973833790     1.451419310