17
0 1 def2QZVP
SI      0.631398820     1.115159460    -2.085325090
SI      0.703672110     3.039505850    -0.744268220
SI      0.720984150    -0.801374170    -0.734688110
SI     -0.986298720    -0.760306140     0.874958900
SI     -0.978167860    -2.707407520     2.183592620
H      -0.640692830     1.101770510    -2.857483310
H       1.757991510     1.130219990    -3.058215480
H       2.033988850    -0.848305420    -0.035372720
H       0.599659340    -2.036500520    -1.556459500
H      -2.300802810    -0.616380520     0.191675030
H      -0.796688720     0.433021960     1.743826410
H      -2.048964560    -2.680522240     3.213598810
H      -1.185257290    -3.895070690     1.315453830
H       0.333547920    -2.846383000     2.867098770
H       0.727297410     4.276218110    -1.567374600
H      -0.490368400     3.079756100     0.138329470
H       1.918701080     3.016598250     0.110653190