8
0 1 def2QZVP
S      -1.456205990     1.456205990    -0.369093900
O      -1.876551530     0.000000000     0.369093900
S      -1.456205990    -1.456205990    -0.369093900
O       0.000000000    -1.876551530     0.369093900
S       1.456205990    -1.456205990    -0.369093900
O       1.876551530     0.000000000     0.369093900
S       1.456205990     1.456205990    -0.369093900
O       0.000000000     1.876551530     0.369093900