10
0 1 def2QZVP
N      -0.012346270    -0.598961920     0.855290920
N       1.400577890    -0.672791740     0.691675560
H       1.791099950     0.278967210     0.698666840
H       1.544417840    -1.033808710    -0.250619350
H      -0.157051270    -0.360559470     1.840259320
N      -0.535925870     0.612369630     0.149493900
N      -0.567646500     0.256083900    -1.241064170
H      -1.497415650     0.679039110     0.507969230
H      -0.562432750     1.123342170    -1.771497440
H      -1.403277380    -0.283680170    -1.480174820