8
0 1 def2QZVP
N      -0.454515220     0.218701930     0.000000000
N       0.372323360     0.197579150     1.173539710
N       0.372323360     0.197579150    -1.173539710
H       0.502661200    -0.751954870    -1.530821910
H      -0.110893780     0.742539070    -1.884599330
H       0.502661200    -0.751954870     1.530821910
H      -0.110893780     0.742539070     1.884599330
H      -1.073666340    -0.595028650     0.000000000