13
0 1 def2QZVP
O       2.547701640     0.176371180    -0.962436730
P       1.357401210     0.087911020     0.073099550
O       1.266042980     1.250232630     0.980467320
O       0.000000000     0.000000000    -0.844418690
P      -1.357401210    -0.087911020     0.073099550
O      -1.266042980    -1.250232630     0.980467320
O      -1.486299430     1.365802190     0.692339650
O      -2.547701640    -0.176371180    -0.962436730
O       1.486299430    -1.365802190     0.692339650
H       2.754165760    -0.675694260    -1.383952500
H      -0.586631450     1.639529360     1.022692060
H      -2.754165760     0.675694260    -1.383952500
H       0.586631450    -1.639529360     1.022692060