8
0 1 def2QZVP
S      -2.367309750     0.159125720     0.000000000
S      -1.427167730    -0.511838010    -1.727092970
S      -0.033918970     0.930673790    -2.152450000
S       1.851102970     0.026505460    -1.719913230
S       1.587277210    -1.049808220     0.000000000
S       1.851102970     0.026505460     1.719913230
S      -0.033918970     0.930673790     2.152450000
S      -1.427167730    -0.511838010     1.727092970