11
0 1 def2QZVP
O      -1.723437690    -1.309122990     0.483508890
S      -1.535208090     0.243968610     0.172208720
O      -2.427591050     0.646138720    -0.872223560
O      -1.413560050     0.890356860     1.436983470
O      -0.065867200     0.245739530    -0.593517870
S       1.361375960     0.125916220     0.270911580
O       2.275486080    -0.135237330    -1.009319300
O       1.650089640     1.415027330     0.822895280
O       1.339460970    -1.085266040     1.023616240
H      -1.984482330    -1.765920220    -0.340432230
H       2.523733770     0.728399300    -1.394631220