10
0 1 def2QZVP
N       0.267051720     0.696367380    -0.561737100
N       1.355107020     0.812539860     0.358709410
H       1.847873080    -0.086811060     0.415335880
H       0.951144250     1.000244180     1.274518090
H       0.694174430     0.790663050    -1.486826280
N      -0.267051720    -0.696367380    -0.561737100
N      -1.355107020    -0.812539860     0.358709410
H      -0.694174430    -0.790663050    -1.486826280
H      -0.951144250    -1.000244180     1.274518090
H      -1.847873080     0.086811060     0.415335880