24
0 1 def2QZVP
C      -1.404596225     0.000000000     0.000000000
C       1.404596225     0.000000000     0.000000000
C      -0.720525140    -1.220267060     0.000000000
C       0.720525140     1.220267060     0.000000000
C      -0.720525140     1.220267060     0.000000000
C       0.720525140    -1.220267060     0.000000000
H      -2.488777268     0.000000000     0.000000000
H       2.488777268     0.000000000     0.000000000
C      -1.405375068    -2.467180839     0.000000000
C       1.405375068     2.467180839     0.000000000
C      -1.405375068     2.467180839     0.000000000
C       1.405375068    -2.467180839     0.000000000
C      -0.709665731    -3.650545656     0.000000000
C       0.709665731     3.650545656     0.000000000
C      -0.709665731     3.650545656     0.000000000
C       0.709665731    -3.650545656     0.000000000
H      -2.487945970    -2.466244421     0.000000000
H       2.487945970     2.466244421     0.000000000
H      -2.487945970     2.466244421     0.000000000
H       2.487945970    -2.466244421     0.000000000
H      -1.244504858    -4.589970482     0.000000000
H       1.244504858     4.589970482     0.000000000
H      -1.244504858     4.589970482     0.000000000
H       1.244504858    -4.589970482     0.000000000