26
0 1 def2QZVP
C      -4.460470628    -0.268215396     0.000000000
C      -3.165921794     0.536615382     0.000000000
C      -1.923952146    -0.346724080     0.000000000
C      -0.620456220     0.442250354     0.000000000
C       0.620456220    -0.442250354     0.000000000
C       1.923952146     0.346724080     0.000000000
C       3.165921794    -0.536615382     0.000000000
C       4.460470628     0.268215396     0.000000000
H      -5.336990983     0.380955702     0.000000000
H      -4.517262105    -0.908855276    -0.881915404
H      -4.517262105    -0.908855276     0.881915404
H      -3.137929787     1.188814080     0.877663061
H      -3.137929787     1.188814080    -0.877663061
H      -1.947559971    -1.000295300     0.878470882
H      -1.947559971    -1.000295300    -0.878470882
H      -0.595439124     1.095478484     0.878560835
H      -0.595439124     1.095478484    -0.878560835
H       0.595439124    -1.095478484     0.878560835
H       0.595439124    -1.095478484    -0.878560835
H       1.947559971     1.000295300     0.878470882
H       1.947559971     1.000295300    -0.878470882
H       3.137929787    -1.188814080     0.877663061
H       3.137929787    -1.188814080    -0.877663061
H       4.517262105     0.908855276     0.881915404
H       5.336990983    -0.380955702     0.000000000
H       4.517262105     0.908855276    -0.881915404