26
0 1 def2QZVP
C       0.000000000     0.000000000    -0.782165960
C       0.000000000     0.000000000     0.782165960
C       1.136858950    -0.865730570    -1.336796559
C       0.181315191     1.417414016    -1.336796559
C      -1.318174141    -0.551683446    -1.336796559
C       1.136858950     0.865730570     1.336796559
C       0.181315191    -1.417414016     1.336796559
C      -1.318174141     0.551683446     1.336796559
H       2.101377536    -0.606324007    -0.896025047
H       0.956403141    -1.928127725    -1.165636116
H       1.216424533    -0.715059162    -2.416380782
H       1.191606021     1.792333279    -1.165636116
H       0.011047133     1.410984129    -2.416380782
H      -0.525596775     2.123008333    -0.896025047
H      -1.575780761    -1.516684325    -0.896025047
H      -2.148009162     0.135794446    -1.165636116
H      -1.227471667    -0.695924966    -2.416380782
H       2.101377536     0.606324007     0.896025047
H       0.956403141     1.928127725     1.165636116
H       1.216424533     0.715059162     2.416380782
H       1.191606021    -1.792333279     1.165636116
H       0.011047133    -1.410984129     2.416380782
H      -0.525596775    -2.123008333     0.896025047
H      -1.575780761     1.516684325     0.896025047
H      -2.148009162    -0.135794446     1.165636116
H      -1.227471667     0.695924966     2.416380782