19
0 1 aug'-def2QZVP
C       1.567910000    -0.077310000    -0.383270000
N       0.098770000     0.087420000     0.017780000
C       0.009820000    -0.068880000     1.523620000
C       1.215300000    -0.956210000     1.849720000
C       2.315250000    -0.376300000     0.930380000
C      -0.603990000     1.272840000    -0.543470000
H      -0.362970000    -0.752290000    -0.347740000
H      -1.646540000     1.245640000    -0.212160000
H      -0.122170000     2.196250000    -0.203010000
H      -0.576780000     1.208150000    -1.635620000
H       1.578590000    -0.933330000    -1.068050000
H       1.914710000     0.821500000    -0.901980000
H       3.151130000    -1.065700000     0.769440000
H       2.719340000     0.550010000     1.361760000
H       0.978140000    -1.988720000     1.561890000
H       1.477860000    -0.928710000     2.912910000
H      -0.959010000    -0.527670000     1.746570000
H       0.084030000     0.922450000     1.989270000
Cl     -1.005380000    -2.428450000    -0.823890000