11
1 1 aug'-def2QZVP
C       0.794160000     1.240240000     1.841300000
C       0.042400000    -0.000630000     1.360300000
N       0.020090000    -0.043900000    -0.156310000
H       0.978510000    -0.044340000    -0.536290000
H      -0.462900000    -0.880910000    -0.515350000
H      -0.459550000     0.785950000    -0.536760000
H      -0.995150000    -0.015710000     1.713030000
H       0.533600000    -0.923060000     1.690080000
H       0.826110000     1.249050000     2.937160000
H       1.824110000     1.248700000     1.465070000
H       0.297740000     2.161580000     1.509080000