18
0 1 aug'-def2QZVP
C      -0.092140000    -0.019860000     0.033390000
C      -0.092140000    -0.019860000     1.547650000
N       1.303660000    -0.019860000     2.060560000
H       1.824540000     0.792760000     1.719320000
H       1.833750000    -0.875930000     1.699760000
H       1.330550000    -0.005500000     3.083390000
H      -0.572870000    -0.910670000     1.946460000
H      -0.598190000     0.855200000     1.949730000
H      -1.118690000    -0.018500000    -0.326520000
H       0.409780000     0.864120000    -0.356700000
H       0.412260000    -0.901910000    -0.354940000
O       2.580810000    -2.068570000     0.950540000
C       3.234500000    -1.470350000     0.048330000
C       3.895020000    -2.352370000    -1.022810000
F       4.222200000    -3.581340000    -0.545990000
O       3.373240000    -0.243580000    -0.112790000
F       2.983280000    -2.550500000    -2.027410000
H       4.784110000    -1.897220000    -1.455620000