18
0 1 aug'-def2QZVP
C      -0.489080000    -1.393130000    -0.478210000
N       0.097440000    -0.122700000     0.070810000
C      -0.618460000     1.154260000    -0.292940000
C      -2.014410000     1.269680000     0.320210000
H       0.160760000    -0.221690000     1.094660000
H       1.067290000    -0.090400000    -0.274440000
H      -0.530720000    -1.310870000    -1.568300000
H       0.189240000    -2.200250000    -0.187400000
H      -1.489300000    -1.565600000    -0.071990000
H      -2.440310000     2.251230000     0.077760000
H      -2.700510000     0.506650000    -0.066090000
H      -1.976340000     1.183600000     1.414930000
H      -0.651510000     1.194680000    -1.388580000
H       0.032420000     1.968670000     0.049090000
O       2.568620000    -0.279380000    -0.681600000
N       3.051810000    -1.062050000     0.265610000
O       4.245950000    -1.378820000     0.244510000
O       2.247600000    -1.467770000     1.177260000