16
0 1 aug'-def2QZVP
C       1.077760000     1.086900000     1.963490000
C       0.138390000    -0.027100000     1.509130000
N       0.056070000    -0.035750000    -0.006170000
H       1.014480000    -0.036190000    -0.386150000
H      -0.426920000    -0.872770000    -0.365200000
H      -0.423570000     0.794100000    -0.386620000
H      -0.875270000     0.090690000     1.911010000
H       0.529290000    -1.011240000     1.782170000
H       1.134860000     1.082040000     3.058840000
H       2.085320000     0.934930000     1.556820000
H       0.716620000     2.078530000     1.652560000
O       3.972980000    -2.022590000     0.293570000
Cl      2.851920000    -1.848940000    -0.607350000
O       3.116910000    -2.404910000    -1.930700000
O       1.608690000    -2.450770000    -0.040850000
O       2.575940000    -0.336420000    -0.770920000