8
-1 1 aug'-def2QZVP
O       2.198290000    -0.031840000    -1.736150000
S       1.200240000     0.007910000    -2.856600000
C       2.282350000     0.025370000    -4.416500000
O       0.391490000    -1.221350000    -2.943300000
O       0.430300000     1.264680000    -2.884900000
F       1.501610000     0.023040000    -5.524560000
F       3.065340000     1.132530000    -4.442500000
F       3.081680000    -1.069640000    -4.447640000