11
1 1 aug'-def2QZVP
C       0.049040000    -0.084480000     0.021420000
C       0.049040000    -0.084480000     1.535490000
N       1.446830000    -0.084480000     2.045840000
H       1.964410000     0.730610000     1.708030000
H       1.476360000    -0.079960000     3.067300000
H       1.982830000    -0.926590000     1.674260000
H      -0.453960000     0.791580000     1.938980000
H      -0.431130000    -0.974810000     1.935770000
H       0.553240000     0.798050000    -0.369050000
H       0.549420000    -0.968880000    -0.367200000
H      -0.977580000    -0.080020000    -0.337960000