14
0 1 aug'-def2QZVP
C       1.053720000    -0.013400000    -0.387760000
N      -0.184590000    -0.013380000     0.251910000
C       0.033260000    -0.013370000     1.587460000
N       1.347050000    -0.013380000     1.807940000
C       2.009050000    -0.013380000     0.598980000
C      -1.505760000    -0.013380000    -0.396870000
H       1.664740000    -0.013380000     2.774270000
H      -0.707370000    -0.013370000     2.377550000
H       3.088250000    -0.013370000     0.535960000
H       1.137000000    -0.013410000    -1.466220000
H      -1.365520000    -0.013360000    -1.480850000
H      -2.065670000    -0.909000000    -0.106090000
H      -2.065690000     0.882220000    -0.106070000
Cl      1.537510000    -0.013380000     4.633060000