17
0 1 aug'-def2QZVP
C       1.254560000     0.045170000    -0.223190000
N      -0.030320000     0.045060000     0.316690000
C       0.075120000     0.044970000     1.665660000
N       1.369860000     0.045000000     1.990010000
C       2.126280000     0.045140000     0.835920000
C      -1.296170000     0.045070000    -0.434770000
H       1.687550000     0.045000000     2.956340000
H      -0.722900000     0.044890000     2.397230000
H       3.207050000     0.045200000     0.858490000
H       1.426950000     0.045260000    -1.290400000
H      -1.070740000     0.045150000    -1.504290000
H      -1.877110000    -0.850350000    -0.188430000
H      -1.877160000     0.940420000    -0.188310000
O       2.104420000     0.045090000     4.464150000
N       1.000030000     0.045170000     5.174280000
O       1.065540000     0.045610000     6.411590000
O      -0.117290000     0.044790000     4.549350000