19
0 1 aug'-def2QZVP
C       0.630040000     1.182510000     2.074030000
C      -0.015980000    -0.089480000     1.523460000
N      -0.016560000    -0.107660000     0.007750000
H       0.941850000    -0.108110000    -0.372230000
H      -0.499550000    -0.944680000    -0.351290000
H      -0.496210000     0.722190000    -0.372700000
H      -1.061160000    -0.177760000     1.846390000
H       0.519950000    -0.991720000     1.836950000
H       0.625880000     1.126610000     3.169830000
H       1.657550000     1.288500000     1.713300000
H       0.052690000     2.069610000     1.780010000
O       2.444690000     0.406350000    -0.408880000
S       3.069630000     0.006820000    -1.737780000
C       4.145530000     1.410600000    -2.148270000
O       3.937110000    -1.170800000    -1.604870000
O       2.017400000    -0.048250000    -2.778960000
H       4.631150000     1.188830000    -3.104880000
H       3.531470000     2.314080000    -2.226980000
H       4.890430000     1.510230000    -1.351670000