7
-1 1 aug'-def2QZVP
O       2.580810000    -2.068570000     0.950540000
C       3.234500000    -1.470350000     0.048330000
C       3.895020000    -2.352370000    -1.022810000
F       4.222200000    -3.581340000    -0.545990000
O       3.373240000    -0.243580000    -0.112790000
F       2.983280000    -2.550500000    -2.027410000
H       4.784110000    -1.897220000    -1.455620000