40
1 1 def2QZVP
C      -4.756450217     1.176144612     0.219984633
C      -5.454816977     0.270300888     1.019610153
C      -4.777645727    -0.673661929     1.786520960
C      -3.384567924    -0.742012446     1.782439070
C      -2.716370623     0.162821226     0.977749766
C      -3.376859877     1.110527327     0.201504442
N      -1.311675973     0.323488026     0.810774209
C      -2.341523720     1.920061159    -0.517693820
C      -1.036017491     1.311539513    -0.056179121
C      -0.386748667    -0.260492245     1.771902168
C       0.210452649     1.805322538    -0.445198164
C       1.448951513     1.184481881    -0.549393759
C       2.771547165     1.917039372    -0.530812912
N       1.686973184    -0.123042695    -0.760560165
C       3.083948272    -0.388114711    -0.822761769
C       0.691202076    -1.089523076    -1.193340217
C       3.776737739     0.814342638    -0.702453907
C       3.720702521    -1.605369957    -0.982447668
C       5.114742612    -1.589370305    -1.027340183
C       5.823605063    -0.396108470    -0.923172208
C       5.157360920     0.820403984    -0.763245286
H      -5.287860311     1.912455908    -0.366977658
H      -6.534571913     0.306150109     1.047238748
H      -5.338734994    -1.363515156     2.400270461
H      -2.864379273    -1.469978909     2.387062416
H      -2.377122816     2.983389262    -0.263285468
H      -2.421610141     1.847780562    -1.604574240
H      -0.581786525     0.174549673     2.753183262
H      -0.535847814    -1.336169509     1.829363443
H       0.637251529    -0.055294770     1.490372269
H       0.204254774     2.847757540    -0.739443132
H       2.810288006     2.659664557    -1.332276513
H       2.889294853     2.463956292     0.406629355
H      -0.103557776    -0.563852571    -1.718481888
H       0.259827971    -1.645900735    -0.364042830
H       1.166660447    -1.788879017    -1.875049781
H       3.176474703    -2.534966316    -1.063315288
H       5.650436270    -2.520446820    -1.147058138
H       6.903315648    -0.412124547    -0.966877575
H       5.715120844     1.743647117    -0.686623667