34
0 1 def2QZVP
C      -1.865410758     2.453054711    -2.041136501
C      -1.123674643     1.622110951    -1.200823690
C      -0.817191201     0.329042579    -1.636536302
C      -1.271422732    -0.137360789    -2.862159869
C      -2.025587979     0.693541807    -3.684627675
C      -2.310965866     1.989906693    -3.274077727
P      -0.554233500     2.075336593     0.485737264
C      -0.903167268     3.877404944     0.577026911
C      -2.177429462     4.411326697     0.787359418
C      -2.362155395     5.785940043     0.862580391
C      -1.275310351     6.646082871     0.739465999
C      -0.002419598     6.126136212     0.536853361
C       0.180419518     4.750572664     0.457972169
C      -1.934662540     1.403511375     1.505779009
C      -3.060912431     0.759240893     0.990243709
C      -4.043576123     0.263454867     1.842289060
C      -3.918720945     0.405897523     3.218045972
C      -2.799939884     1.047375967     3.743062565
C      -1.815163387     1.531460853     2.894294077
H      -3.178668544     0.642764768    -0.077649090
H      -4.909682736    -0.234257482     1.425706483
H      -4.683024905     0.017298308     3.877634859
H      -2.689678591     1.163361613     4.813418847
H      -0.943332912     2.020494327     3.311599793
H      -3.023530192     3.747879022     0.901501166
H      -3.353821341     6.187597637     1.025367596
H      -1.419204089     7.716036392     0.811566884
H       0.848285127     6.788871673     0.450890417
H       1.174280094     4.346138038     0.313895809
H      -0.230781191    -0.320959325    -0.998921424
H      -1.031681648    -1.143874043    -3.179446367
H      -2.384107548     0.333862022    -4.640095116
H      -2.887861173     2.644556618    -3.913740446
H      -2.108038803     3.458901980    -1.729288554