30
0 1 def2QZVP
C       1.362759350     3.066224124    -0.000002738
C       2.495379208     2.245604226    -0.000005616
C      -1.362758981     3.066227761     0.000005181
C       0.000000939     2.547569404    -0.000006935
C      -0.000004898     1.186312893    -0.000016214
C       2.424036352     0.788194945    -0.000001795
C      -2.495367218     2.245606863     0.000004782
C       3.337054368    -0.349605708     0.000007408
C       0.699329645    -3.283432219    -0.000001962
C      -0.699330893    -3.283426569    -0.000000937
C       1.496295878    -2.061817544    -0.000002506
C       0.697674801    -0.959714255    -0.000013243
C      -0.697664243    -0.959713045    -0.000009340
C      -1.496293714    -2.061815107    -0.000004416
C      -2.904369704    -1.679573299     0.000000419
C      -3.337063718    -0.349609487     0.000003987
C      -2.424037927     0.788192623    -0.000001557
C      -1.129365338     0.367342604    -0.000014913
C       2.904371013    -1.679568934     0.000009781
C       1.129360992     0.367349605    -0.000012861
H      -3.669300176    -2.446136138     0.000003842
H      -4.406644070    -0.180374762     0.000010607
H      -3.459867408     2.737818346     0.000015742
H      -1.531399565     4.135998688     0.000013545
H       1.531406814     4.135996962    -0.000007889
H       3.459868297     2.737837768    -0.000005309
H       4.406637002    -0.180377764     0.000021638
H       3.669295904    -2.446135868     0.000017220
H       1.192551771    -4.247489519    -0.000000886
H      -1.192554481    -4.247485596    -0.000005033