38
0 1 def2QZVP
C       1.619097359     0.490606151    -0.659450793
C       2.341222719     1.636418082    -0.232294374
C       1.473412162     2.297982264     0.872294443
C       0.312167001     1.488573890     0.989875262
C       0.454992563     0.461855791     0.079744426
C      -2.340619881    -1.639823659     0.231531495
C      -1.618560559    -0.493933124     0.658589439
C      -0.454473645    -0.465148809    -0.080640413
C      -0.311617846    -1.491907915    -0.990732889
C      -1.472828286    -2.301347491    -0.873101506
C       1.882198860    -0.496532352    -1.628254910
C       0.835356803    -1.580729044    -1.802571936
C      -0.834807601     1.577393955     1.801700141
C      -1.881612132     0.493185291     1.627438155
C      -1.470961186    -3.386918858    -1.734148560
C      -0.350495302    -3.554724112    -2.592701425
C       0.766964726    -2.712611169    -2.646778961
C       3.119312865    -0.255435853    -2.268560032
C       3.887274449     0.857033535    -1.902507937
C       3.539260417     1.809913809    -0.906336852
C      -3.538555658    -1.813425382     0.905724312
C      -3.886515545    -0.860564199     1.901927754
C      -3.118604402     0.251957276     2.267913194
C      -0.766404205     2.709256468     2.645942431
C       0.351083271     3.551328529     2.591909057
C       1.471581394     3.383506670     1.733387778
H      -2.278030664    -4.106001239    -1.783403464
H      -0.362588152    -4.407942196    -3.257959743
H       1.561086210    -2.953431813    -3.341471587
H       3.494387238    -0.909539318    -3.044856192
H       4.825019576     1.008658479    -2.421213797
H       4.215984079     2.630950977    -0.708760919
H      -4.215229387    -2.634529245     0.708251888
H      -4.824194905    -1.012252547     2.420735957
H      -3.493640571     0.905999813     3.044278457
H      -1.560542881     2.950102023     3.340605092
H       0.363193832     4.404533451     3.257184443
H       2.278687283     4.102541873     1.782712567