13
0 1 def2QZVP
P       0.009202663     0.065734764    -0.019415531
C       0.030845233     0.168660872     1.803193704
C       1.563949434    -0.289681946    -0.913220328
C      -1.579095247     0.189211381    -0.918163693
H       1.399162095    -1.038916672    -1.687682667
H       2.034636917     0.585193073    -1.363451055
H       2.254809398    -0.722248664    -0.187844048
H      -1.801536782     1.180970949    -1.315323477
H      -1.595019874    -0.527491061    -1.739603751
H      -2.373675347    -0.096233242    -0.226798157
H      -0.964331512    -0.097102383     2.164065067
H       0.725100468    -0.568536065     2.206067444
H       0.295953555     1.150438993     2.198174493