13
0 1 def2QZVP
N      -0.020905109     0.021301696    -0.002299754
C       0.031600896     0.114500532     1.425061326
C       1.223112341    -0.135225984    -0.696413013
C      -1.254579309     0.028228573    -0.735438105
H       1.043407618    -0.455119672    -1.723543512
H       1.816548150     0.792238598    -0.731020746
H       1.852654261    -0.899995713    -0.222568419
H      -1.281953486     0.812749729    -1.503355037
H      -1.461281824    -0.927460512    -1.242134464
H      -2.082326005     0.221568661    -0.053798433
H      -0.969251992     0.259592822     1.830196366
H       0.454968572    -0.791344492     1.888341424
H       0.648006887     0.958965761     1.766970366