30
0 1 def2QZVP
C      -0.791330241     0.114232963     1.379089786
C      -1.185233975    -0.090330584     0.069583540
C      -0.500115620    -1.046974624    -0.747132878
C       0.598870558    -1.718127967    -0.243760325
C       1.013210593    -1.504717445     1.111036998
C       0.347075578    -0.584347569     1.898193409
C       1.050120885     0.216303312     2.806415792
C       2.412642293    -0.054572456     2.919797596
N       3.088356672    -0.922045111     2.108390908
C       2.407297165    -1.587107075     1.190278298
C       1.697346897    -1.998161124    -1.064411089
C       1.549722491    -1.660382645    -2.408882204
N       0.489118082    -0.957681158    -2.905258747
C      -0.476378464    -0.602926391    -2.072412523
C      -1.662962408     0.974626150    -0.703459180
C      -1.810952458     2.189026291    -0.034797981
N      -1.382666575     2.411827637     1.243647044
C      -0.827309577     1.409056409     1.905340693
C      -1.444731346     0.598563353    -2.187061653
C       2.925558403    -2.177610564    -0.143441706
C       0.193542862     1.476687412     3.067542870
H       3.045361193     0.524827830     3.581493501
H       2.349091658    -1.831007361    -3.120227311
H      -2.159314274     3.075349478    -0.551674838
H      -0.985575161     1.407371020    -2.753853404
H      -2.373630646     0.323342496    -2.693123058
H       3.224758906    -3.223703458    -0.036101611
H       3.793789675    -1.624057364    -0.497304503
H      -0.303878878     1.454800944     4.040816557
H       0.780215712     2.392737602     3.017276021