27
0 1 def2QZVP
C      -0.376393399     0.444054574     2.088857459
C      -1.516799196     0.338722422     1.185979965
C      -1.440624428     0.661569025    -0.181265629
C       0.987049429     0.333185024    -0.709580848
C       1.533645692    -0.070642408     0.522566451
C       0.928092708     0.267764924     1.805250826
C       2.703396661    -0.844551974     0.518897563
C       3.290412172    -1.257310424    -0.665620736
C       2.715964148    -0.896780714    -1.880323912
C       1.575325727    -0.104109553    -1.892924279
C      -2.549761810     0.456017457    -0.996428557
C      -3.741079702    -0.032428512    -0.477747374
C      -3.836075793    -0.314086929     0.881165786
C      -2.736058063    -0.122885420     1.700218055
C      -0.184053257     1.279452180    -0.730234780
H      -0.632493378     0.579760044     3.133866089
H       1.613315043     0.270157485     2.646028228
H       3.140268175    -1.137196845     1.465943088
H       4.189692561    -1.857918710    -0.643777409
H       3.165266345    -1.216716464    -2.811292287
H       1.143760049     0.205172933    -2.837059291
H      -2.483045174     0.707620356    -2.047667724
H      -4.594988753    -0.176419376    -1.126165161
H      -4.763443666    -0.682369302     1.299214070
H      -2.803067622    -0.353652802     2.756037165
H       0.067589468     2.154618475    -0.121680800
H      -0.359893938     1.629974534    -1.747255959