9
0 1 def2QZVP
C      -1.311974363    -0.107034973    -0.101417659
S       0.071159138     0.944159047     0.412300478
C       1.440364988    -0.165937521    -0.006807827
H      -2.227585260     0.448726055     0.091617116
H      -1.256107830    -0.340820221    -1.165597823
H      -1.332181848    -1.032846251     0.472938649
H       2.363787128     0.360631266     0.228019149
H       1.435994512    -0.415118492    -1.068910442
H       1.395543536    -1.081758911     0.581858360