33
0 1 def2QZVP
C       2.671711938    -2.378643179     0.000009556
C       3.396106130    -1.122285060     0.000003197
C       2.743385213     0.130212199     0.000012222
C       1.259912708    -2.441721660     0.000019428
C      -0.000002367    -3.421572193    -0.000001843
C      -0.725158395     3.501719285    -0.000004786
C      -1.483896463     2.310148170     0.000001024
C      -2.961520019     1.711283543     0.000002378
C       0.725162309     3.501731902    -0.000009408
C       1.483891607     2.310150796    -0.000004769
C       0.680798274     1.198261397     0.000019508
C      -0.680802284     1.198263687     0.000007208
C      -1.379233648    -0.010989433     0.000002572
C      -2.743397978     0.130212076    -0.000000364
C      -3.396115692    -1.122284518    -0.000007299
C      -2.671707246    -2.378635779    -0.000009300
C      -1.259912429    -2.441717990     0.000003135
C      -0.698490631    -1.190465978     0.000015414
C       0.698488171    -1.190475747     0.000036869
C       1.379221043    -0.010994442     0.000037431
C       2.961527796     1.711280572    -0.000007265
H       1.201011327     4.474629872    -0.000015816
H      -1.200976694     4.474633820    -0.000009280
H       4.476359624    -1.198284718    -0.000009354
H       3.280132571    -3.274246747    -0.000007380
H      -3.280117983    -3.274246067    -0.000020922
H      -4.476366847    -1.198310355    -0.000010456
H      -3.523093843     2.035641156     0.876821721
H      -3.523113765     2.035647184    -0.876803067
H       3.523086995     2.035637102    -0.876832546
H       3.523107404     2.035658206     0.876797862
H       0.000007251    -4.070096972    -0.876863196
H      -0.000004074    -4.070139127     0.876827526