33
0 1 def2QZVP
C      -0.059296323     3.322096717     0.197822768
N      -1.209880828     2.407382407    -0.104964716
B      -0.692701242     1.231340250    -0.731799808
N       0.744744092     1.238374633    -0.847361436
B       1.212765068     2.356550380    -0.079613998
N      -1.446168462     0.028686278    -0.853498823
B      -2.649414418    -0.123941850    -0.086299614
N      -3.233031748     1.072479950     0.437468638
B      -2.498374710     2.330466051     0.500546189
B      -0.717116747    -1.210829947    -0.734490710
N      -1.472026926    -2.241376342    -0.095591386
C      -2.839804569    -1.704981265     0.207292556
B       1.410357134    -0.016903355    -0.739468974
N       2.687276779    -0.161641611    -0.113741870
B       3.254412457     0.985685079     0.514167364
N       2.534816824     2.252342688     0.456023522
N       0.700555241    -1.267024901    -0.861553116
B       1.436585647    -2.232125977    -0.094443574
C       2.905492937    -1.615184315     0.186165559
B      -0.761637523    -3.315855929     0.515068773
N       0.694499636    -3.330066854     0.441412523
H       2.920610573     3.007174791     1.000182015
H       4.258196455     0.916880359     1.154949228
H      -0.122256295     3.683880229     1.225556485
H      -2.954939036     3.238219870     1.125900984
H      -4.086253654     1.026894113     0.970099868
H      -3.588881739    -2.177920977    -0.435020348
H      -1.319375642    -4.154702606     1.153228952
H       1.164306216    -4.040784342     0.978005655
H       3.249385929    -1.745567396     1.213681416
H      -3.120472840    -1.933693600     1.236580048
H      -0.086400570     4.204590504    -0.448944017
H       3.684034285    -2.030446031    -0.460825148