30
0 1 def2QZVP
C       1.301494370     2.967868068    -0.260574242
C       2.419428150     2.156203724    -0.265685593
C      -1.301493141     2.967865034    -0.260592794
C      -0.000001876     2.472145457     0.111168505
C       0.000001329     1.205476634     0.658453840
C       2.350423620     0.764005059     0.103214518
C      -2.419428919     2.156199758    -0.265706711
C       3.221345491    -0.320882928    -0.274761720
C       0.690964153    -3.168762478    -0.257172761
C      -0.690963434    -3.168757598    -0.257173626
C       1.451421958    -1.999194910     0.104764669
C       0.708638176    -0.974115855     0.655491587
C      -0.708639854    -0.974115231     0.655501693
C      -1.451422635    -1.999197323     0.104781047
C      -2.793235356    -1.635066384    -0.274830679
C      -3.221333311    -0.320882530    -0.274769086
C      -2.350421657     0.764007097     0.103211894
C      -1.147061799     0.373200530     0.656023575
C       2.793224758    -1.635060380    -0.274867754
C       1.147063769     0.373198069     0.656024191
H      -4.205848556    -0.098704431    -0.667849701
H      -3.458058239    -2.395930985    -0.665045850
H      -1.208260152    -4.041779796    -0.635500322
H       1.208257561    -4.041785953    -0.635500911
H       3.458040231    -2.395926327    -0.665090716
H       4.205860514    -0.098703949    -0.667842495
H       3.347229018     2.558129881    -0.654288848
H       1.395244241     3.976231946    -0.645025990
H      -1.395237620     3.976220271    -0.645067315
H      -3.347230791     2.558117532    -0.654318406