34
0 1 def2QZVP
C      -3.839340895    -0.332343624    -1.714879295
C      -2.435833830    -0.290775344    -1.868684179
C      -1.634692557    -0.424367686    -0.688262707
C      -2.266817419    -0.441068594     0.575123364
C      -3.634232379    -0.406002921     0.689675804
C      -4.424275188    -0.386273718    -0.472707781
C      -1.763657253    -0.233902597    -3.131969884
C      -0.391402593    -0.551708038    -3.159697807
C       0.389763692    -0.725492998    -2.004094115
C      -0.227443356    -0.614612045    -0.790414499
C      -2.162252735    -0.026435617    -4.511774148
C      -1.043262311    -0.358455261    -5.300412533
N       0.017469949    -0.637278411    -4.470191754
C      -3.311648269     0.512044088    -5.178289032
C      -3.349038583     0.443361877    -6.609147066
C      -2.228808951    -0.049412176    -7.336449269
C      -1.068270772    -0.397778587    -6.706017534
C      -4.356605775     1.208218687    -4.531135882
C      -5.421086677     1.723429261    -5.232795397
C      -5.500171086     1.570401740    -6.627326942
C      -4.475606063     0.948473981    -7.296027728
H      -4.463876328    -0.370463916    -2.591751543
H       0.932056306    -0.917864066    -4.773427422
H       0.344519753    -0.727015746     0.121613451
H       1.448077001    -0.939124226    -2.079268340
H      -5.502397621    -0.428083402    -0.391224475
H      -1.646075261    -0.512425936     1.459564031
H      -4.103264538    -0.428416684     1.664079569
H      -2.296035729    -0.093265076    -8.415687671
H      -0.196406708    -0.709706729    -7.266137418
H      -4.294660324     1.384539108    -3.470169529
H      -6.193520453     2.266723415    -4.705262875
H      -6.345911227     1.969623302    -7.170504065
H      -4.501841818     0.861046939    -8.375248327