13
0 1 def2QZVP
C      -2.660819289    -0.219395214     0.000000000
C      -1.493508151     0.431188037     0.000000000
C      -0.189792959    -0.208680864     0.000000000
C       0.974556873     0.450657152     0.000000000
C       2.328224643    -0.185391827     0.000000000
H      -2.706600013    -1.303325709     0.000000000
H      -3.605615216     0.309061284     0.000000000
H      -1.495008605     1.519103719     0.000000000
H      -0.182425921    -1.297378514     0.000000000
H       0.954084312     1.539147455     0.000000000
H       2.260820193    -1.274961255     0.000000000
H       2.908042067     0.119987868     0.877510719
H       2.908042067     0.119987868    -0.877510719