12
0 1 def2QZVP
C      -1.880272984    -0.328907026    -0.001237333
C      -0.562830201     0.425810381    -0.012104927
N       0.561805633    -0.344435245    -0.032317232
C       1.891624364     0.241770966     0.002696179
O      -0.515919343     1.645644736    -0.012029850
H      -2.470897124    -0.012004674    -0.861723029
H      -2.434502359    -0.051828727     0.896751770
H      -1.766510282    -1.413890306    -0.028539835
H       0.470461577    -1.343741227     0.033768587
H       1.940372809     1.079830274    -0.691746274
H       2.620570281    -0.512239020    -0.292790959
H       2.146097629     0.613989869     0.999272904