26
0 1 def2QZVP
C      -4.491701721    -0.265622280     0.000000000
C      -3.187364576     0.533203279     0.000000000
C      -1.936053322    -0.349068225     0.000000000
C      -0.625286271     0.441639650     0.000000000
C       0.625286271    -0.441639650     0.000000000
C       1.936053322     0.349068225     0.000000000
C       3.187364576    -0.533203279     0.000000000
C       4.491701721     0.265622280     0.000000000
H      -5.363853956     0.392578604     0.000000000
H      -4.561378983    -0.908418720    -0.882076982
H      -4.561378983    -0.908418720     0.882076982
H      -3.163304696     1.191907431     0.875419257
H      -3.163304696     1.191907431    -0.875419257
H      -1.960846122    -1.008708692     0.875983514
H      -1.960846122    -1.008708692    -0.875983514
H      -0.601483389     1.101082727     0.875984704
H      -0.601483389     1.101082727    -0.875984704
H       0.601483389    -1.101082727     0.875984704
H       0.601483389    -1.101082727    -0.875984704
H       1.960846122     1.008708692     0.875983514
H       1.960846122     1.008708692    -0.875983514
H       3.163304696    -1.191907431     0.875419257
H       3.163304696    -1.191907431    -0.875419257
H       4.561378983     0.908418720     0.882076982
H       5.363853956    -0.392578604     0.000000000
H       4.561378983     0.908418720    -0.882076982