7
0 1 def2QZVP
C       0.000000000     0.000000000     0.000000000
C       0.000000000     0.000000000    -1.301157356
C       0.000000000     0.000000000     1.301157356
H      -0.655509318    -0.655509318    -1.864832870
H       0.655509318     0.655509318    -1.864832870
H      -0.655509318     0.655509318     1.864832870
H       0.655509318    -0.655509318     1.864832870