16
0 1 def2QZVP
C       0.005042892    -0.510937120    -1.297943273
C      -0.018387739    -1.882362548    -1.069506947
C      -0.015782927    -2.371294821     0.232012389
C       0.011155420    -1.475970188     1.300593374
C       0.032192807    -0.108093983     1.070700645
C       0.025270926     0.402902242    -0.235887874
C       0.040019931     1.842370713    -0.536288644
C      -0.047102259     2.855364485     0.327178508
H       0.003567847    -0.136653614    -2.315915011
H      -0.036306340    -2.567912783    -1.908494891
H      -0.031576849    -3.438899247     0.415424093
H       0.018268035    -1.848896801     2.318138011
H       0.060741008     0.569359253     1.915169545
H       0.124123823     2.080137657    -1.593856110
H      -0.145332348     2.709655625     1.396403621
H      -0.025894228     3.881231131    -0.017727437