10
0 1 def2QZVP
O      -0.194060778     0.797392794    -1.247544986
C       0.262471891    -0.385982336    -0.580464332
C      -0.321171354    -0.354550899     0.817349822
O       0.133591648     0.768687093     1.558611592
H       0.312285262     0.922633522    -2.056165141
H      -0.048288936     1.548113177     1.018185815
H      -0.076343567    -1.288703628    -1.105041593
H       1.356795976    -0.399135537    -0.520104432
H      -0.008166185    -1.244483670     1.366561874
H      -1.417113958    -0.363970517     0.748611382