7
0 1 def2QZVP
C       0.000000000    -0.732879935     0.049936871
C       0.000000000     0.732879935     0.049936871
O       0.000000000     0.000000000    -1.178754360
H      -0.919045298    -1.269056494     0.269720154
H       0.919045298    -1.269056494     0.269720154
H      -0.919045298     1.269056494     0.269720154
H       0.919045298     1.269056494     0.269720154