6
0 1 def2QZVP
C       0.000000000     0.000000000     0.488652909
C       0.000000000     0.000000000    -0.966883643
N       0.000000000     0.000000000    -2.117879746
H       0.511962261    -0.886744648     0.865370160
H       0.511962261     0.886744648     0.865370160
H      -1.023924522     0.000000000     0.865370160