12
0 1 def2QZVP
C       0.000000000    -1.274223784    -0.584310361
C       0.000000000     0.000000000     0.217609404
C       0.000000000     1.274223784    -0.584310361
C       0.000000000     0.000000000     1.549636655
H       0.000000000    -2.156560863     0.056677582
H       0.878023170    -1.324317890    -1.237107361
H      -0.878023170    -1.324317890    -1.237107361
H       0.000000000     2.156560863     0.056677582
H       0.878023170     1.324317890    -1.237107361
H      -0.878023170     1.324317890    -1.237107361
H       0.000000000    -0.923034075     2.118224472
H       0.000000000     0.923034075     2.118224472