20
0 1 def2QZVP
N      -1.316407897     0.335117104     0.093305006
C      -1.374251321    -1.093684322    -0.223884663
C      -0.160972062    -1.894792518     0.267935308
C       1.141490939    -1.251025216    -0.220840417
C       1.189078083     0.238682279     0.142030064
C      -0.069933825     0.979209203    -0.345104212
C      -0.077283896     2.444920528     0.075454922
H      -1.430437188     0.470340848     1.094324771
H      -2.301426199    -1.498973558     0.189208845
H      -1.450786954    -1.187454487    -1.313832843
H      -0.231069064    -2.932406859    -0.074721208
H      -0.167968839    -1.921857974     1.364477269
H       2.008519673    -1.772452790     0.194562324
H       1.207867888    -1.357936518    -1.310576877
H       2.084145748     0.704963549    -0.283120079
H       1.262157409     0.349780402     1.231802298
H      -0.076866709     0.936801057    -1.442702833
H      -0.084605749     2.536089341     1.166773856
H       0.811258270     2.962920084    -0.292749006
H      -0.962508307     2.951759847    -0.312342523