14
0 1 def2QZVP
N      -0.005321054     2.308747535     0.000000000
C       0.000717840     1.608056416     1.136460984
C       0.011519125     0.218673062     1.187780569
C       0.013583992    -0.513533570     0.000000000
C       0.011519125     0.218673062    -1.187780569
C       0.000717840     1.608056416    -1.136460984
C      -0.007386950    -2.018518265     0.000000000
H      -0.000141350     2.188021281     2.054451032
H       0.019956723    -0.285050871     2.147813368
H       0.019956723    -0.285050871    -2.147813368
H      -0.000141350     2.188021281    -2.054451032
H       0.486093871    -2.423545261    -0.884990620
H       0.486093871    -2.423545261     0.884990620
H      -1.037168405    -2.389004954     0.000000000