10
0 1 def2QZVP
C       0.000000000     0.667967177    -0.927484704
C       0.000000000     0.786398377     0.585316277
C       0.000000000    -0.786398377     0.585316277
C       0.000000000    -0.667967177    -0.927484704
H       0.000000000     1.413433441    -1.713678688
H       0.888155742     1.244768510     1.027923558
H      -0.888155742     1.244768510     1.027923558
H      -0.888155742    -1.244768510     1.027923558
H       0.888155742    -1.244768510     1.027923558
H       0.000000000    -1.413433441    -1.713678688