9
0 1 def2QZVP
O      -1.586811933     0.134644033    -0.267948316
C      -0.409397745     0.044307276     0.535759057
C       0.873277870     0.091586001    -0.281891720
H      -1.592161391    -0.607467593    -0.883139961
H      -0.459642790     0.897607665     1.213973233
H      -0.431895693    -0.864084072     1.152401395
H       0.913943485     1.001501461    -0.883887650
H       1.749783321     0.069060358     0.371548159
H       0.942904876    -0.767155129    -0.956814198