10
0 1 def2QZVP
N      -1.192978809     0.000000000    -0.925890389
C      -1.181509433     0.000000000     0.408778668
C       0.000000000     0.000000000     1.138836489
C       1.181509433     0.000000000     0.408778668
N       1.192978809     0.000000000    -0.925890389
C       0.000000000     0.000000000    -1.521875250
H      -2.148846102     0.000000000     0.901533583
H       0.000000000     0.000000000     2.221045563
H       2.148846102     0.000000000     0.901533583
H       0.000000000     0.000000000    -2.606850525