14
0 1 def2QZVP
C      -0.032155742     0.921560114     0.000000000
C      -0.034221220     0.204942042    -1.204186199
C      -0.036980324    -1.183940329    -1.198689404
C      -0.038713476    -1.892409998     0.000000000
C      -0.036980324    -1.183940329     1.198689404
C      -0.034221220     0.204942042     1.204186199
N      -0.089134957     2.316209129     0.000000000
H      -0.038051498     0.743073238    -2.146237930
H      -0.036927395    -1.716471511    -2.142808461
H      -0.040023560    -2.974995012     0.000000000
H      -0.036927395    -1.716471511     2.142808461
H      -0.038051498     0.743073238     2.146237930
H       0.246194304     2.767214444    -0.837278430
H       0.246194304     2.767214444     0.837278430