12
0 1 def2QZVP
C      -1.987388647     0.052068321     0.251314663
C      -0.856025708     0.180243863    -0.433286958
C       0.406893675    -0.591275183    -0.181932778
C       1.595574272     0.312454085     0.176821727
H      -2.082155109    -0.660504272     1.064759544
H      -2.862023974     0.649966146     0.023979450
H      -0.809734070     0.910763637    -1.239765497
H       0.660081243    -1.165694986    -1.081225747
H       0.237825150    -1.319572828     0.616662040
H       1.790338809     1.041433189    -0.614266726
H       2.505253570    -0.275616179     0.318644245
H       1.401360791     0.865734207     1.098296037