12
0 1 def2QZVP
C      -2.103555995    -0.664628232     0.000000000
C      -1.014292641     0.370284909     0.000000000
O       0.215206416    -0.238267286     0.000000000
C       1.348061034     0.558334209     0.000000000
C       2.549537311     0.004335704     0.000000000
O      -1.165499280     1.562036648     0.000000000
H      -3.071779460    -0.170815373     0.000000000
H      -2.010015189    -1.303975448     0.879776959
H      -2.010015189    -1.303975448    -0.879776959
H       1.150969973     1.621521755     0.000000000
H       2.683978591    -1.069398823     0.000000000
H       3.427404429     0.634547384     0.000000000