6
0 1 def2QZVP
C       0.000000000     0.000000000     0.483025033
N       0.000000000     0.000000000    -0.937250053
C       0.000000000     0.000000000    -2.103756033
H       0.512955413    -0.888464837     0.852660351
H       0.512955413     0.888464837     0.852660351
H      -1.025910825     0.000000000     0.852660351