14
0 1 def2QZVP
N       1.323603268    -0.040937071     0.000000000
C       0.481621889     0.250203203     1.163048068
C      -0.866260992    -0.387588253     0.777959853
C      -0.866260992    -0.387588253    -0.777959853
C       0.481621889     0.250203203    -1.163048068
H       2.187833868     0.488308150     0.000000000
H       0.911149414    -0.176624770     2.071570869
H       0.348182482     1.333086640     1.327812828
H      -1.706384061     0.166268375     1.199185005
H      -0.924027301    -1.409030736     1.155788323
H      -0.924027301    -1.409030736    -1.155788323
H      -1.706384061     0.166268375    -1.199185005
H       0.911149414    -0.176624770    -2.071570869
H       0.348182482     1.333086640    -1.327812828