8
0 1 def2QZVP
O      -1.743559472     0.454593478     0.000000000
C      -1.176094275    -0.603605302     0.000000000
O       0.152238653    -0.783214535     0.000000000
C       0.955173889     0.416426633     0.000000000
H      -1.669494759    -1.584410193     0.000000000
H       1.986518793     0.075175548     0.000000000
H       0.747608585     1.012517185     0.888570643
H       0.747608585     1.012517185    -0.888570643