16
0 1 def2QZVP
C       0.184090886     0.515137459     0.147980459
C      -0.006060185    -0.364832104     1.213289008
C      -0.176604167    -1.729252730     0.989225859
C      -0.163206750    -2.227210028    -0.308648322
C       0.020548342    -1.355452355    -1.380649267
C       0.196625467     0.003925089    -1.153595397
C       0.388824859     1.993442260     0.390212725
O      -0.454407791     2.825424898    -0.409701294
H      -1.369318020     2.562659508    -0.253617473
H      -0.025124907     0.020003120     2.227577247
H      -0.324565875    -2.399617220     1.827678432
H      -0.298348046    -3.287421242    -0.486634714
H       0.032380941    -1.738875589    -2.394254021
H       0.332283729     0.682788704    -1.987492359
H       0.256976702     2.211341439     1.457059255
H       1.405904817     2.287938792     0.121569862