10
0 1 def2QZVP
N       0.000000000     1.402019196     0.000000000
C      -1.131331791     0.696332133     0.000000000
C      -1.131331791    -0.696332133     0.000000000
N       0.000000000    -1.402019196     0.000000000
C       1.131331791    -0.696332133     0.000000000
C       1.131331791     0.696332133     0.000000000
H      -2.061972981     1.254186020     0.000000000
H      -2.061972981    -1.254186020     0.000000000
H       2.061972981    -1.254186020     0.000000000
H       2.061972981     1.254186020     0.000000000