28
0 1 def2QZVP
C       0.619373011    -0.471982456    -1.950860522
C      -0.619373011     0.471982456    -1.950860522
C      -1.476399448     0.363113538    -0.719579909
C       1.476399448    -0.363113538    -0.719579909
C      -1.197139712     1.116869688     0.428841465
C      -1.966420278     0.945882859     1.581781920
C      -3.007627877     0.010998505     1.601970373
C      -3.284856897    -0.746886598     0.459141994
C      -2.524896676    -0.565984541    -0.699897201
H      -0.380599880     1.832884318     0.411349750
H      -1.747958371     1.537940409     2.468362449
H      -3.603229996    -0.123242757     2.502947304
H      -4.096572513    -1.471670759     0.467062038
H      -2.737107778    -1.153284942    -1.591351221
C       1.197139712    -1.116869688     0.428841465
C       1.966420278    -0.945882859     1.581781920
C       3.007627877    -0.010998505     1.601970373
C       3.284856897     0.746886598     0.459141994
C       2.524896676     0.565984541    -0.699897201
H       0.380599880    -1.832884318     0.411349750
H       1.747958371    -1.537940409     2.468362449
H       3.603229996     0.123242757     2.502947304
H       4.096572513     1.471670759     0.467062038
H       2.737107778     1.153284942    -1.591351221
H      -1.206026297     0.236045733    -2.848984423
F      -0.114991677     1.781228553    -2.110784015
F       0.114991677    -1.781228553    -2.110784015
H       1.206026297    -0.236045733    -2.848984423