48
0 1 def2QZVP
C       0.825783263     0.565518368     1.345472840
C       1.726939777     0.071719549     0.453546994
C       2.979295308     0.814676888     0.173760403
C       3.638271482     1.546383153     1.182961774
C       4.797689346     2.271533828     0.903547319
C       5.332390598     2.275650642    -0.390113254
C       4.697066498     1.544027154    -1.399987305
C       3.538110560     0.817895286    -1.120882009
H       3.244993513     1.520999742     2.196992102
H       5.294317483     2.822231381     1.700629753
H       6.239951732     2.835986335    -0.606471362
H       5.104558097     1.540687594    -2.409468606
H       3.046252562     0.255443589    -1.910843971
C       1.507443287    -1.183348088    -0.313296764
C       0.309919920    -1.423038024    -1.034311508
C       0.119387746    -2.644791779    -1.705756780
C       1.110719744    -3.621560576    -1.685813347
C       2.305519093    -3.389040311    -0.989044180
C       2.496750396    -2.180745806    -0.318364378
N      -0.628213607    -0.369611492    -1.102559964
H      -0.808061844    -2.791645441    -2.252883266
H       0.961918993    -4.558573943    -2.219348139
H       3.087200496    -4.146151871    -0.975004894
H       3.421215129    -1.997603716     0.224832956
N      -1.832667825    -0.730344701    -1.177594251
C      -2.768138496     0.336365451    -1.255679398
C      -4.117766149    -0.049212397    -1.211722558
C      -5.125267620     0.917214206    -1.241578219
C      -4.789132325     2.272972573    -1.320013530
C      -3.440111774     2.659896438    -1.370380038
C      -2.430027295     1.702643726    -1.337391803
H      -4.350126207    -1.109454467    -1.141088181
H      -6.169945968     0.614945139    -1.201967000
H      -5.572353279     3.028477336    -1.345119293
H      -3.182414929     3.715831471    -1.434506734
H      -1.381108631     1.983835550    -1.367057320
H       1.023113167     1.564877209     1.736290746
C      -0.411645032    -0.048669771     1.834635262
C      -1.508684740     0.784827778     2.132287689
C      -2.725322418     0.249139095     2.555479445
C      -2.864530571    -1.133658359     2.712513659
C      -1.772563064    -1.971814581     2.453643052
C      -0.558772935    -1.437431751     2.024371584
H      -1.406983073     1.860571954     1.997689025
H      -3.567211710     0.909818051     2.753604268
H      -3.813087186    -1.555358904     3.039421081
H      -1.868146791    -3.047604777     2.589153160
H       0.283475279    -2.094508733     1.827414940