44
0 1 def2QZVP
N       2.017186880     1.274044286     0.020155422
C       1.547487426     0.069955679     0.397743406
C       0.254681029    -0.086270926     0.910760753
C      -0.679749035     0.979702504     0.984189824
C      -2.135047988     0.620023560     1.472544830
O      -0.480895465     2.168896377     0.674613609
C      -3.113232641     0.399029137     0.251529376
C      -4.536964173    -0.210263839     0.605243934
C      -5.571855916     0.021644263    -0.537600828
C      -6.968065534    -0.624701575    -0.304896842
C       2.425910397    -1.125481139     0.305459647
C       3.733702882    -1.099817413     0.821653709
C       4.535315110    -2.241173634     0.771193999
C       4.043762564    -3.419428071     0.197225834
C       2.743740057    -3.452722906    -0.318380898
C       1.936121268    -2.314533267    -0.260096163
H       4.107793044    -0.187597225     1.279987686
H       5.540994862    -2.213775861     1.185740438
H       4.670070922    -4.308213480     0.155991189
H       2.357173932    -4.365823755    -0.766178098
H       0.925115716    -2.334233309    -0.660379711
C       3.166716811     1.569838228    -0.847929833
C       2.655651666     2.170329068    -2.166825168
C       4.134588541     2.520105371    -0.131015457
H       3.675625402     0.625849546    -1.060248291
H       4.988058161     2.749730386    -0.781298805
H       3.628372346     3.462038622     0.118857830
H       4.508411235     2.072449104     0.797498934
H       3.501246339     2.397689589    -2.828235965
H       1.983615869     1.470337844    -2.677145575
H       2.107310977     3.102338334    -1.974621526
H       1.335752843     2.031670676     0.147136659
H      -0.030928989    -1.070326324     1.258358551
F      -2.151502355    -0.531564748     2.225378595
F      -2.613167618     1.630853504     2.247135915
F      -3.314926138     1.601816696    -0.362809101
F      -2.499867359    -0.439377040    -0.632104932
F      -5.010266507     0.411218807     1.724959155
F      -4.395662938    -1.535410631     0.870884773
H      -5.727532170     1.101733306    -0.635957778
F      -5.071362874    -0.479157718    -1.723737160
F      -7.775996967    -0.280535118    -1.339160999
F      -6.916390873    -1.968058754    -0.248494728
F      -7.530990739    -0.162828157     0.832873789