35
0 1 def2QZVP
C      -1.679364977     1.083082679     0.484431023
C      -2.980625533     1.599835393     0.435878181
C      -4.035892010     0.812719028    -0.023916623
C      -3.792431172    -0.496379025    -0.447218870
C      -2.491707540    -1.006493910    -0.391369865
C      -1.411120260    -0.248337225     0.080023226
O      -0.708410621     1.939746531     0.947658261
C       0.010017543    -0.837287971     0.237610189
C       1.012904309     0.101257308    -0.488334002
C       2.248118174     0.464851711    -0.065241714
C       0.498682271     0.572617263    -1.846442533
C       3.095081271     1.458470670    -0.840808727
C       2.969731722    -0.073279523     1.161485227
C       0.153351930    -2.232130540    -0.414158177
H       0.171199488     1.574371281     0.728573134
C       0.197030914    -1.022714233     1.769718253
H      -3.139966111     2.626585696     0.757446812
H      -5.042189064     1.225970268    -0.057032132
H      -4.603939334    -1.118630332    -0.818213404
H      -2.318853331    -2.026877273    -0.721874537
H       1.305924623     0.650891522    -2.581701576
H      -0.247083288    -0.128272584    -2.235432137
H       0.000728034     1.550362081    -1.779150665
H       2.525248865     2.064117610    -1.550382031
H       3.895185242     0.939128799    -1.393273678
H       3.594126577     2.140012734    -0.137102580
H       2.927660833    -1.166048275     1.214425048
H       4.027621170     0.214022084     1.122631340
H       2.559180776     0.318842946     2.100533449
H       1.184234777    -2.580106348    -0.278475089
H      -0.519791242    -2.957565742     0.060504071
H      -0.066749569    -2.203936215    -1.487573643
H       1.079512314    -1.620715310     2.009803378
H       0.263704439    -0.063253444     2.292513140
H      -0.681121222    -1.554857653     2.154467252