26
0 1 def2QZVP
C      -1.476274722    -1.153156513    -0.292796637
C      -2.868922233    -1.158814881    -0.294692161
C      -3.592259552     0.001849557     0.038238956
C      -2.868241002     1.161592684     0.373280208
C      -1.475690921     1.154497736     0.373398406
C      -0.739311746     0.000234896     0.041063442
C       1.476274722     1.153156513    -0.292796637
C       0.739311746    -0.000234896     0.041063442
C       1.475690921    -1.154497736     0.373398406
C       2.868241002    -1.161592684     0.373280208
C       3.592259552    -0.001849557     0.038238956
C       2.868922233     1.158814881    -0.294692161
N       4.990962987     0.013852611     0.092371605
N      -4.990962987    -0.013852611     0.092371605
H      -0.945575813    -2.057846650    -0.582590849
H      -3.407758469    -2.066595685    -0.565539328
H      -3.406667937     2.068045337     0.649042998
H      -0.944434508     2.059920274     0.659738575
H       0.945575813     2.057846650    -0.582590849
H       0.944434508    -2.059920274     0.659738575
H       3.406667937    -2.068045337     0.649042998
H       3.407758469     2.066595685    -0.565539328
H       5.435344933    -0.887836818    -0.024637040
H       5.434543461     0.731266055    -0.466878175
H      -5.434543461    -0.731266055    -0.466878175
H      -5.435344933     0.887836818    -0.024637040