52
1 1 def2QZVP
C      -0.184877643    -0.331534353     0.058245296
C       0.511801821     0.866367821    -0.525953309
C       0.403302648    -1.671307499    -0.241549859
C      -0.011404550     2.236884182     0.026187311
C       0.477076474     0.818984218    -2.076937262
C      -0.442413540     2.083895334     1.496028664
H       0.851682204     2.914842846    -0.001232593
C      -1.121751337     2.903217891    -0.801805545
C      -1.614114412     1.102202829     1.619232430
H       0.397986803     1.715997921     2.100111663
H      -0.731656101     3.060624102     1.899987469
C      -1.265374623    -0.241078174     0.954045447
H      -1.860321019     0.908029054     2.669116114
H      -2.507996310     1.555448261     1.172978435
H      -1.303336693    -1.114861936     1.622104999
SI     -2.983294080    -0.968604079    -0.050410165
C       1.868989838    -1.722703033     0.282426491
C       2.703653104    -0.604943592    -0.355834957
C       2.028764217     0.745526758    -0.072257168
H      -0.185364936    -2.468927881     0.217963411
H       0.427229119    -1.836246688    -1.326813070
H       1.861026124    -1.612514658     1.374549329
H       2.284528148    -2.709704711     0.049794645
C       4.150071471    -0.605716400     0.123111468
H       2.718232011    -0.769176435    -1.440988496
H       2.080030282     0.955030677     1.002147520
H       2.559589404     1.552135089    -0.591058821
C      -4.209400077    -0.927989297     1.384924365
C      -3.474660250     0.176064677    -1.463845734
C      -2.650092170    -2.724342667    -0.650516417
H      -5.178309865    -1.302671754     1.023729807
H      -3.887098850    -1.572315787     2.212955633
H      -4.363267130     0.086811882     1.769115424
H      -4.332069832    -0.290782232    -1.972027682
H      -3.800147024     1.162890909    -1.116456209
H      -2.680829663     0.305331873    -2.208226170
H      -3.599994972    -3.124129070    -1.035989938
H      -1.919795417    -2.767708174    -1.466525716
H      -2.318129167    -3.390573054     0.155468905
H       1.016578686     1.693253788    -2.457592759
H       0.962584738    -0.079320072    -2.465471904
H      -0.548433472     0.858737450    -2.456131258
H      -1.425614083     3.837026462    -0.313625686
H      -0.781513971     3.149296858    -1.812391282
H      -2.005531831     2.266236923    -0.891144985
C       5.150362338    -0.673013622    -0.762833151
C       4.398630636    -0.524417231     1.610324876
H       6.190782530    -0.666117336    -0.442525049
H       4.958453308    -0.739065673    -1.833323589
H       3.992651552    -1.403545776     2.131548624
H       5.471390168    -0.472479582     1.822716817
H       3.921395392     0.360952958     2.054653632