41
0 1 def2QZVP
C      -6.802375377    -0.715414084     0.649633450
C      -6.240943073     0.419838914    -0.232283890
C      -6.575180379     0.158473638    -1.717190628
C      -4.749498633     0.612005870    -0.023979688
C      -3.823589283    -0.336258164    -0.251200670
C      -2.379504848    -0.207766353    -0.039808972
C      -1.784214007     0.612822276     0.844561190
C      -0.302428891     0.778963876     1.049587970
C       0.603770141    -0.087407781     0.167593254
C       2.091263273     0.149348094     0.452679820
C       4.454307197    -0.530820843    -0.117042348
C       5.364602672    -0.046654640    -0.976337952
C       6.798502183     0.178480242    -0.687206036
O       7.586371494     0.621888116    -1.504089708
O       7.151864484    -0.159697292     0.589721900
C       8.545918079     0.042729474     0.918833912
C       3.004211172    -0.721295639    -0.438062611
H      -7.888789405    -0.808523426     0.513373476
H      -6.338303277    -1.672302052     0.376133468
H      -6.596251621    -0.530086371     1.711427051
H      -6.740700244     1.352993725     0.062800566
H      -6.104008724    -0.775425430    -2.051441155
H      -6.206631643     0.971911635    -2.354844650
H      -7.661099670     0.065875039    -1.857181604
H      -4.417887194     1.594093022     0.318416553
H      -4.156868530    -1.297369170    -0.651406236
H      -1.753316582    -0.860985381    -0.649930014
H      -2.417554909     1.221782355     1.494083056
H      -0.042834360     1.840687779     0.894210208
H      -0.066513195     0.582825226     2.109686028
H       0.395690733     0.123657122    -0.891477696
H       0.366672987    -1.149423355     0.328731853
H       2.336660691     1.208853180     0.291001109
H       2.302295036    -0.066412886     1.510852988
H       4.768901723    -0.784399302     0.896427161
H       5.081172258     0.220724269    -1.993479537
H       8.645277208    -0.275393962     1.959887492
H       9.185785983    -0.560692966     0.263864332
H       8.816808199     1.099365486     0.806275812
H       2.815242369    -0.493429724    -1.496200069
H       2.733175962    -1.777560518    -0.276619184