72
0 1 def2QZVP
C      -1.329081000    -0.568173300     0.222408000
C      -0.719164600    -0.079630300    -0.972119400
C       0.719164600     0.079630300    -0.972119400
C       1.329081000     0.568173300     0.222408000
C       0.620353400     0.337957900     1.428886200
C      -0.620353400    -0.337957900     1.428886200
C      -2.551459900    -1.573776800     0.207964900
C      -1.537392100     0.629314000    -2.134358300
C       1.537392100    -0.629314000    -2.134358300
C       2.551459900     1.573776800     0.207964900
C       1.199797500     0.673187600     2.778263100
C      -1.199797500    -0.673187600     2.778263100
C      -2.128901800    -2.834363000     1.024519300
C      -2.842668200    -2.145682600    -1.200173100
C      -3.884966900    -1.052051600     0.799241400
O      -0.353631800    -1.491478800     3.478734500
C      -0.774363500     1.957454500    -2.430690700
C      -1.792347500    -0.052921100    -3.502128500
C      -2.905116900     1.120398900    -1.588742400
C       1.792347500     0.052921100    -3.502128500
C       0.774363500    -1.957454500    -2.430690700
C       2.905116900    -1.120398900    -1.588742400
C       2.842668200     2.145682600    -1.200173100
C       3.884966900     1.052051600     0.799241400
C       2.128901800     2.834363000     1.024519300
O      -2.237560800    -0.255026000     3.239982000
C      -0.765802700    -1.800422100     4.830074400
O       0.353631800     1.491478800     3.478734500
C       0.765802700     1.800422100     4.830074400
O       2.237560800     0.255026000     3.239982000
H      -1.166610100    -3.225014500     0.671330700
H      -2.056396500    -2.655185100     2.097449600
H      -2.893888900    -3.609187100     0.885718100
H      -1.921779900    -2.456983800    -1.701963600
H      -3.488280300    -3.025624300    -1.088204400
H      -3.379106500    -1.449927100    -1.841265700
H      -3.807487200    -0.883055400     1.872782400
H      -4.207612200    -0.116641700     0.336911300
H      -4.662465100    -1.807631400     0.616148100
H      -0.668402400     2.548548200    -1.513381100
H      -1.354715800     2.541658000    -3.157804900
H       0.217831800     1.786594200    -2.845092200
H      -0.877706100    -0.176564500    -4.082920100
H      -2.459066900     0.597674000    -4.083744300
H      -2.267382700    -1.030832400    -3.419683200
H      -2.793122900     1.555697500    -0.589840100
H      -3.661209200     0.339391700    -1.543711000
H      -3.284036000     1.896434200    -2.266868100
H       2.267382700     1.030832400    -3.419683200
H       0.877706100     0.176564500    -4.082920100
H       2.459066900    -0.597674000    -4.083744300
H       0.668402400    -2.548548200    -1.513381100
H       1.354715800    -2.541658000    -3.157804900
H      -0.217831800    -1.786594200    -2.845092200
H       3.661209200    -0.339391700    -1.543711000
H       3.284036000    -1.896434200    -2.266868100
H       2.793122900    -1.555697500    -0.589840100
H       1.921779900     2.456983800    -1.701963600
H       3.379106500     1.449927100    -1.841265700
H       3.488280300     3.025624300    -1.088204400
H       3.807487200     0.883055400     1.872782400
H       4.662465100     1.807631400     0.616148100
H       4.207612200     0.116641700     0.336911300
H       1.166610100     3.225014500     0.671330700
H       2.893888900     3.609187100     0.885718100
H       2.056396500     2.655185100     2.097449600
H       0.054978700    -2.383327500     5.254900200
H      -0.932881300    -0.878970200     5.399576700
H      -1.695149100    -2.383488600     4.817800000
H      -0.054978700     2.383327500     5.254900200
H       1.695149100     2.383488600     4.817800000
H       0.932881300     0.878970200     5.399576700