43
0 1 def2QZVP
C      -1.883897217     3.246352061     0.029287297
C      -0.517253263     3.063580770    -0.017294960
C       0.183536510     1.823158129     0.119043225
C       1.526541734     1.751825870    -0.102333349
N       2.391070121     0.651574603     0.018429257
C      -2.867327329     2.221188688     0.038975265
C      -4.224942803     2.464277303     0.078363402
C      -5.336691814     1.570934254    -0.002852014
C      -5.409195124     0.188404993    -0.063163187
C      -4.340488011    -0.724462074     0.069491927
C      -4.381296700    -2.086649181    -0.135938840
C      -3.227536338    -2.930775727    -0.087794837
C      -1.935472157    -2.455369355    -0.108323763
C      -0.742593789    -3.191257407     0.097761249
C       0.515868257    -2.624261131     0.152344665
C       0.819013348    -1.255158092    -0.129000461
C       2.013587687    -0.692270209     0.194140476
C       3.784264189     0.979264940    -0.027869598
O       4.212013679     2.112922591    -0.071468517
O       4.545251932    -0.135098546    -0.033330982
C       5.990198768     0.092434162    -0.042955069
C       6.654501373    -1.271743229    -0.020144347
H      -2.249615976     4.274965527     0.008196870
H       0.099068019     3.952073778    -0.166406419
H      -0.380360665     0.956613672     0.445790067
H       2.055677835     2.654111983    -0.389986763
H      -2.500145824     1.205274338    -0.065221261
H      -4.506877497     3.518868107     0.140291968
H      -6.298633046     2.081346575    -0.068372404
H      -6.399194214    -0.236873129    -0.243547778
H      -3.393378954    -0.313826328     0.398281111
H      -5.343674634    -2.553446048    -0.356073876
H      -3.388026757    -4.009305884    -0.030891152
H      -1.814456688    -1.383839617    -0.258199421
H      -0.831910799    -4.259205234     0.302846116
H       1.345865724    -3.256578599     0.472411268
H       0.067871996    -0.659638692    -0.633999466
H       2.785932287    -1.303046873     0.646667403
H       6.251202513     0.698783099     0.832823907
H       6.239663161     0.663321839    -0.945420680
H       6.386763528    -1.824178304     0.888615785
H       7.743940723    -1.140233999    -0.038143157
H       6.361136215    -1.864059625    -0.895028960