40
0 1 def2QZVP
C      -2.541727740     0.490416019     0.937657717
C      -1.580959755     0.248959426    -0.048110613
C      -1.929384497    -0.539294637    -1.157835805
C      -3.205139667    -1.079671053    -1.271807185
C      -4.166262691    -0.839788207    -0.274167371
C      -3.828408401    -0.049504480     0.835824648
C      -0.205427941     0.893410858     0.025424922
N       0.823046601     0.054227422    -0.546963905
C       1.744353120    -0.121801571     0.335537508
C       1.370326440     0.547656244     1.650504094
O       0.156711503     1.131942967     1.423355112
C      -0.216175313     2.285570128    -0.686500563
C       2.983702422    -0.867531647     0.087923689
C       3.316076655    -1.228725397    -1.235224051
C       4.484130363    -1.938573749    -1.497936327
C       5.339554745    -2.299901779    -0.447299226
C       5.019186112    -1.942931879     0.865687267
C       3.850317655    -1.227717352     1.138301908
O       1.939974607     0.595568808     2.711990778
C       1.132153707     2.934810218    -0.749970159
C       1.705992426     3.701273891     0.173989157
O      -5.389942283    -1.417159713    -0.474050175
C      -6.397602499    -1.203217390     0.519978553
F       1.814922571     2.632760432    -1.895802920
H      -0.607027340     2.133200007    -1.697809550
H      -1.187184609    -0.735319489    -1.926681787
H      -3.477253182    -1.696833727    -2.124538646
H      -4.549834880     0.148437204     1.622349406
H      -2.286608480     1.093351119     1.804762911
H       3.605935395    -0.946431751     2.156969340
H       5.681478604    -2.220044479     1.683247169
H       6.253274916    -2.853743319    -0.654856715
H       4.734104222    -2.208409502    -2.522055771
H       2.649448007    -0.936042793    -2.041836075
H      -7.279375609    -1.746174522     0.169360002
H      -6.633511504    -0.132753641     0.620406348
H      -6.079774308    -1.597894946     1.497037689
H       1.166124483     3.924182700     1.088515213
H       2.707721126     4.097481091     0.034842127
H      -0.916934981     2.916218487    -0.130218716