26
0 1 def2QZVP
C      -3.249361989    -0.212182504     0.190881770
C      -3.018011359    -0.080260175     1.553111805
C      -1.718701719     0.143076933     2.046501045
C      -0.658905278     0.237377154     1.158050732
C      -0.850359978     0.110814355    -0.240082819
C      -2.180861739    -0.127186789    -0.722041846
C       0.257368413     0.192893443    -1.200908734
O      -2.461792888    -0.277404098    -2.026652610
O       0.063752144     0.021522972    -2.421058703
C       1.686996653     0.513911528    -0.736396430
C       1.829647159     1.961646056    -0.236582352
C       2.264307649    -0.537731422     0.241396060
O       2.838010366    -0.218510875     1.265028237
C       2.095624522    -1.984350289    -0.184810196
H      -4.247297145    -0.390065950    -0.201691490
H      -3.854852145    -0.151744092     2.245533397
H      -1.545191723     0.241444535     3.114997277
H       0.337704963     0.411286884     1.548601133
H      -1.589102201    -0.204256431    -2.508987260
H       2.286691207     0.397982318    -1.651007388
H       1.230533680     2.142353479     0.660044214
H       1.507283062     2.658249343    -1.019498922
H       2.878008791     2.159780793     0.011184315
H       2.381477182    -2.113430700    -1.237120889
H       1.031936516    -2.253890614    -0.109561579
H       2.685095855    -2.641325854     0.461071231