39
0 1 def2QZVP
C      -0.894520488     0.141164523    -0.793243032
C      -0.142085243    -0.549811136    -1.645747152
N       0.517071789    -1.173415957    -2.460360691
C       1.700947093    -2.015426297    -2.085537386
C       2.355108086    -1.595486956    -0.793716064
C       1.708371988    -1.843376482     0.427133155
C       2.259954069    -1.330319042     1.595718211
C       3.436078757    -0.582917829     1.603108563
C       4.078689772    -0.349569721     0.383559521
C       3.540093014    -0.846261274    -0.807634281
H       0.780293273    -2.407206604     0.473353025
F       1.626505563    -1.564539372     2.774212725
H       3.828020697    -0.201403776     2.541949439
H       4.999293467     0.229664135     0.365004740
H       4.032538582    -0.643200404    -1.756544904
C      -0.476212290     1.517998984    -0.418611928
C      -2.093476415    -0.505267248    -0.203404008
C      -2.504804443    -0.179491649     1.103969916
C      -3.608691644    -0.810147082     1.680794425
C      -4.321362836    -1.783240361     0.970862225
C      -3.919507409    -2.117376232    -0.327671091
C      -2.822330626    -1.481905885    -0.911324683
H      -1.948708678     0.566982447     1.665001101
H      -5.181532277    -2.273023956     1.422766843
H      -4.471053263    -2.865738255    -0.894142464
H      -2.527630594    -1.729719110    -1.929672651
C      -1.438674089     2.530456858    -0.245031092
C      -1.051398144     3.826898359     0.098243062
C       0.302943713     4.138981510     0.268827325
C       1.266449487     3.138820654     0.099885038
C       0.882002429     1.838214295    -0.233054862
H      -2.490598530     2.292165437    -0.382808751
H      -1.808895580     4.598289594     0.225890390
H       0.602462745     5.150285722     0.536944114
H       2.321440627     3.366493176     0.242733131
H       1.631168577     1.056662863    -0.330063355
H      -3.908388032    -0.545303293     2.693274500
H       1.334275629    -3.049055468    -2.034422549
H       2.406161223    -1.949875169    -2.920240505