42
0 1 def2QZVP
C       0.836524184     0.131712862     1.267511979
C       1.557115053    -0.392343885     0.000000000
C       0.836524184     0.131712862    -1.267511979
C      -0.659167177    -0.144522895    -1.263320050
C      -1.331625082     0.377349329     0.000000000
C      -0.659167177    -0.144522895     1.263320050
C       1.575422433    -1.924201439     0.000000000
O       2.951054422    -0.022548223     0.000000000
C       1.619629809     0.098258321    -2.553742281
C       1.284067840     1.426069404    -1.909041436
C      -1.161788575    -1.439856660    -1.861371384
C      -1.408322864    -0.130802216    -2.573983118
C      -2.814571406     0.654994355     0.000000000
C      -1.831389943     1.804440578     0.000000000
C      -1.161788575    -1.439856660     1.861371384
C      -1.408322864    -0.130802216     2.573983118
C       1.284067840     1.426069404     1.909041436
C       1.619629809     0.098258321     2.553742281
H       0.556968234    -2.316653130     0.000000000
H       2.096535364    -2.282928074    -0.893911159
H       2.096535364    -2.282928074     0.893911159
H       2.997539333     0.943048735     0.000000000
H       0.503591266     2.025781411     2.368656270
H       2.102318001     2.008695329     1.488628976
H       2.649560345    -0.242893717     2.466005010
H       1.128505570    -0.183101218     3.483962404
H      -0.431078778    -2.111115252     2.292470072
H      -2.014810890    -1.912945284     1.379779068
H      -2.420048611     0.276059654     2.596840033
H      -0.850806611     0.079644020     3.483506480
H      -3.383344910     0.465161120     0.904330576
H      -3.383344910     0.465161120    -0.904330576
H      -1.721620486     2.374740035    -0.925222295
H      -1.721620486     2.374740035     0.925222295
H      -2.014810890    -1.912945284    -1.379779068
H      -0.431078778    -2.111115252    -2.292470072
H      -0.850806611     0.079644020    -3.483506480
H      -2.420048611     0.276059654    -2.596840033
H       1.128505570    -0.183101218    -3.483962404
H       2.649560345    -0.242893717    -2.466005010
H       2.102318001     2.008695329    -1.488628976
H       0.503591266     2.025781411    -2.368656270