35
0 1 def2QZVP
C      -1.510310366     0.626061016     0.264974091
C      -2.647988196     0.706498278     1.089949504
C      -3.846046499     0.110962038     0.699860175
C      -3.935991448    -0.578655499    -0.516584403
C      -2.805941581    -0.658307487    -1.333194720
C      -1.595940010    -0.063302145    -0.956520676
O      -0.398117144     1.242096479     0.769743487
C       0.892904112     1.240084630     0.072058078
C       1.396510513    -0.174142136    -0.288779934
C       1.221239381    -1.251971011     0.505556118
C       0.555288130    -1.243127966     1.865290341
C       1.656564541    -2.652931501     0.116523131
C       2.163078725    -0.236983852    -1.593699615
C       0.754668754     2.195960319    -1.132485873
C       1.856381067     1.877648749     1.085822670
H      -2.567102543     1.239757854     2.034419633
H      -4.714664804     0.184807448     1.352020767
H      -4.870572596    -1.045028144    -0.819970200
H      -2.855712965    -1.191178389    -2.281394176
H      -0.731976170    -0.158677198    -1.601214037
H      -0.460621635    -1.659924539     1.787257767
H       0.470455117    -0.253998659     2.313644926
H       1.117594201    -1.898780371     2.546821818
H       1.785697739    -2.797977084    -0.959879841
H       2.600658021    -2.922293181     0.616590840
H       0.902564269    -3.375457637     0.459575362
H       2.681184718    -1.187553377    -1.734590985
H       2.926114586     0.553777866    -1.624591276
H       1.508894115    -0.068275357    -2.462845304
H       0.097386075     1.795931013    -1.908912244
H       1.732378698     2.408944113    -1.576611378
H       0.327543562     3.135604786    -0.765877038
H       1.932278194     1.262694143     1.987078216
H       1.510011659     2.882700338     1.358267677
H       2.851589781     1.955036463     0.631697100