36
0 1 def2QZVP
C       0.625579393    -2.241626162    -0.086120713
C      -0.175481843    -3.226442580     0.337883133
H      -0.959717991    -3.038055409     1.070502813
H      -0.060580232    -4.246671717    -0.026154318
C       1.711621709    -2.448104099    -1.107909101
H       2.697878370    -2.236198052    -0.673081988
H       1.702932039    -3.473693631    -1.494184274
H       1.586087438    -1.749979661    -1.947562419
C       0.472500163    -0.839337215     0.473766767
N       0.262203879     0.172710254    -0.578091546
C      -1.034968927     0.056575182    -1.276338919
C      -2.213219973     0.381593387    -0.379366307
C      -3.102234067    -0.625118463     0.018477238
C      -4.178498055    -0.332448991     0.864320096
C      -4.369010171     0.974388000     1.322809859
C      -3.481804304     1.985325264     0.930704270
C      -2.409468786     1.692290682     0.084621000
H      -2.945556235    -1.642676758    -0.337191695
H      -4.863693485    -1.122936740     1.165564783
H      -5.204247704     1.205793010     1.981302337
H      -3.630524425     3.004986901     1.281925360
H      -1.716703886     2.470121483    -0.228867597
C       0.985765215     1.331548928    -0.741513653
C       2.362961159     1.434773059    -0.196585815
O       0.551924500     2.312811888    -1.356300838
C       3.092415450     2.569288418     0.049808204
C       4.393001800     2.161243727     0.469916135
C       4.370612996     0.794265503     0.436442044
H       2.720759591     3.577669583    -0.074127249
H       5.232741412     2.781291285     0.752443958
O       3.162848233     0.318885846     0.037353315
CL      5.578890702    -0.379959228     0.791257461
H      -0.395188803    -0.806647207     1.147572527
H       1.355188007    -0.569561702     1.056180907
H      -1.007601130     0.731394538    -2.136303009
H      -1.117412043    -0.977499324    -1.633152766