26
0 1 def2QZVP
C      -4.126217640    -0.752995093     0.229959032
C      -4.342163084     0.300684445    -0.666487348
C      -3.261631845     1.109442967    -1.035907457
C      -1.981131423     0.877038245    -0.528904219
C      -1.767931459    -0.182234288     0.370475557
C      -2.854385600    -0.993908608     0.749606057
N      -0.488407298    -0.492371679     0.857905158
N       0.488407298     0.492371679     0.857905158
C       1.767931459     0.182234288     0.370475557
C       2.854385600     0.993908608     0.749606057
C       4.126217640     0.752995093     0.229959032
C       4.342163084    -0.300684445    -0.666487348
C       3.261631845    -1.109442967    -1.035907457
C       1.981131423    -0.877038245    -0.528904219
H      -0.469153388    -1.119176019     1.658441438
H       0.469153388     1.119176019     1.658441438
H      -4.954829978    -1.390354148     0.533638549
H      -5.335690087     0.489179851    -1.066610537
H      -3.412342187     1.932746951    -1.732147669
H      -1.141542236     1.501622161    -0.819767883
H      -2.694089644    -1.813885827     1.449799321
H       2.694089644     1.813885827     1.449799321
H       4.954829978     1.390354148     0.533638549
H       5.335690087    -0.489179851    -1.066610537
H       3.412342187    -1.932746951    -1.732147669
H       1.141542236    -1.501622161    -0.819767883