16
0 2 def2QZVP
H      -1.029956000     0.404942800     0.782381600
H      -2.612164100    -0.743347500     0.305933800
H       1.418380200     1.795494500    -0.398365500
B       1.684438900    -1.502652300     2.193839300
B      -1.522155800    -0.385308600    -0.021114200
H       2.404992400    -1.177295000     3.095629600
O      -1.668539200     0.435427600    -1.380522200
B      -0.544720900     1.141123700    -1.983010400
F       1.767564500     1.729252300     0.530914100
O       0.608027900     0.957094200    -1.388609300
H      -0.772986700    -1.319336800    -0.279486200
H       0.507038300    -1.187366300     2.330293500
H      -2.555793700     0.527347300    -1.757391900
H      -0.825667800     1.800731900    -2.936082400
P       2.247927000    -2.280039400     0.650996700
Mg      0.893614800    -0.196068300     0.254593400