16
0 1 def2QZVP
B       0.731467700    -2.076498400     1.172158300
Si     -2.616108200     1.015183900    -0.471841500
B       1.530829500    -1.291736700    -0.081481000
O      -0.273268800    -1.963517200     2.061569800
H      -3.679603600     1.655218600    -1.283804700
S       2.149313800    -2.948771100     0.555178300
Al     -0.892367600    -0.724773200     0.934872600
C      -2.709903500    -0.451075300     0.447040400
H      -0.197426000     0.896730600     0.637320300
B      -0.687889000     1.410474500    -0.450353500
H      -3.532803400    -1.150687800     0.566255000
S       0.488867000     1.955937200    -1.567721200
F       3.253002600     1.543830400    -1.438754800
O       2.086317000    -0.387155400    -0.847260400
B       2.210507900     1.079318400    -0.690785000
H       2.139064700     1.437521500     0.457607500