16
0 2 def2QZVP
H       0.924981500    -1.304633800    -0.005865600
B       0.259420800     1.589042000    -2.244591900
C       0.913762100     0.250318100     1.505910900
Si     -0.933718500     0.194091400     2.045442200
N      -1.444441600    -1.236226400     1.190290100
H       2.424582800    -0.393485300     0.091354500
H       1.227759200     1.297637300     1.622933500
H      -2.522909500    -2.843625800     0.404701900
H      -1.070333600     1.626550100    -2.358423900
C       1.333934700    -0.292347100     0.116637200
Al     -2.404973900     0.087193500    -0.208247700
C      -2.242521100    -1.787978900     0.364103000
B      -0.832800100     0.795719800    -1.366412200
B       0.807206900     0.618070000    -1.076107100
Si      2.108348900     1.698440400    -2.378423200
H       1.451701400    -0.298765400     2.296698400