16
0 2 def2QZVP
Na      0.917503100    -1.127018700    -1.873448600
H       1.929383400     0.458959200     0.143203100
S       2.120719300    -2.350211200     0.094367500
H       1.224005700     1.868065100     0.987754600
F      -2.182264800     2.410987200    -0.613239900
H      -1.442226400    -0.236835400    -2.230173200
B      -1.181970900    -0.014758400    -1.079017000
Al     -1.856403100    -0.074225800     1.142047400
B       1.037844700    -1.966327400     1.390595400
S       0.444165900    -0.207161600     1.855187800
H       0.248443300     1.763225400    -1.371985800
H       0.585877600    -2.714152700     2.206735400
H      -1.268180400    -1.071237900    -0.378664900
C       0.997241200     0.912568000     0.504885500
C      -1.502545100     1.277708900    -0.192699100
C      -0.071593400     1.070415100    -0.585548100