16
0 1 def2QZVP
C      -0.011369600    -0.355404600    -2.514006500
O       0.729166500    -1.718864500     2.031492700
H      -1.185287600     0.870763000     1.813877500
Li     -0.463679300    -1.450307100     0.760552800
Mg      0.685244400     0.986758100    -0.553183200
Al     -1.935562300     0.240442500    -0.749135100
C      -0.123012000    -0.969844600    -1.287994800
H       0.160729300    -2.033251400    -1.295863500
H      -1.778879000     2.222842100     0.864424900
H       0.261270500    -0.826814000    -3.458756800
F       2.320791000     0.984943100     0.297285400
S      -0.622026300     1.320065800    -2.594000500
C      -0.987569400     1.462274100     0.907922800
H       0.541672300    -2.245707700     2.817435400
Na      2.493453400    -0.548482100     1.775775700
H      -0.084942100     2.060587300     1.184173000