16
0 2 def2QZVP
H       1.714428400    -0.379520400    -2.623730600
F      -1.369804300    -0.685032200     0.359893100
B      -0.033830300    -0.104085000     0.626035300
H       0.949486200    -2.056923900     1.279168800
N      -0.180547300     1.110197400     1.537628100
Al      0.821388500     2.277906800     0.141862700
C       1.051642900    -1.264742900     0.527621600
H       2.086703600    -0.893363600     0.571629600
P      -1.626323200     2.165868300     1.085329200
O      -0.842469700    -0.408079000    -2.513088300
H       0.013448200     1.080151500     2.534721600
O       0.827462000    -1.893778300    -0.770352000
H      -2.627648300     1.147008400     1.174991700
Mg     -1.591164500     0.614201300    -1.151269700
H       0.273004600     0.554996000    -0.484615900
Si      0.534223000    -1.264804500    -2.295825200