16
0 1 def2QZVP
H       1.477858200     2.026738800    -1.477923000
H      -0.759091000     0.229762000     2.930870100
C      -1.726537200    -1.326350700    -0.828856100
B       1.135342800    -0.469898700    -1.188492200
H      -2.276694900    -2.083007700    -0.258930300
P       0.032320200    -2.023932600    -1.176537100
O       0.217854500     0.307481400     2.946746900
Cl      2.335596200     2.077104000     1.365074300
Al      0.707550800     0.741877000     1.045283500
P       1.631678900     0.912936400    -2.342487500
B      -1.599950600     0.023485900    -0.146244400
H       0.590076800    -0.516569000     3.309805900
F       0.327766700     1.153095600    -3.287670400
P      -1.415504600     1.588462000     0.555841300
H      -2.186459500    -1.239474200    -1.822253800
P       1.508192600    -1.401710100     0.375772900