16
0 2 def2QZVP
C      -0.676411500     0.034093200     1.465717000
O       1.085019500     0.342329600    -0.156483000
B      -0.039098100     1.301955400    -0.691054500
F       0.582197600     2.346905900    -1.401242400
H      -1.000191600     0.010925900     2.512149600
Al      0.428707300     0.747015900    -3.364695700
H       1.331612400     0.921225400     1.827464600
H       1.386702600    -0.836229600     1.520935000
O      -0.489343800    -1.786814500    -0.360575000
B      -1.163992800    -1.339307500     0.717853100
Be      0.489990200    -0.855519400    -1.025926500
C       0.863309500     0.095682400     1.285367700
H      -2.097320700    -1.950609500     1.158479500
H      -0.619652500     0.573118500    -1.612688100
B      -1.155002200     1.225600300     0.589826500
F       1.073474200    -0.830372000    -2.465127800