16
0 1 def2QZVP
Na     -1.155162500     2.739207900     1.341528100
H      -1.442977200    -1.794940400    -0.126125300
O      -0.401409200     2.511955900    -0.740464900
H       1.549109300     1.293539300     1.664040700
Mg      0.655753900    -2.338418400     0.228744200
H       1.698327900    -1.699414500    -3.206223100
Al      0.384956800     0.908173600    -0.555688600
H      -1.443638100    -0.480513100    -1.638767700
H       2.279436100    -1.739893400    -0.593871400
Mg     -0.754340400    -0.369992900     1.634348300
O       0.675805700     1.105306300     1.292038800
Cl     -2.222444100     0.888817800     2.927269800
Al      1.386332600    -0.920012500    -1.852386400
H      -0.627029900     2.800933700    -1.633692300
H       0.214596400    -2.005310900     1.965026900
B      -0.797317400    -0.899438500    -0.705777100