16
0 2 def2QZVP
S       1.363022700    -2.128788100    -2.171063100
H      -0.743670400     2.802625100     0.630429300
H      -2.169785600    -1.838597200    -0.448874000
H       1.532804400     1.289231400     2.912650500
Mg      1.297669100    -1.062444600    -0.081487300
N      -0.802829800     1.217392200    -0.927328000
O      -0.128536500     2.550685500     1.394249800
S      -1.590138000    -2.055747600    -1.650749600
N       0.059127400     0.696867400    -0.032843000
N       0.002777800    -2.522648300    -1.009280800
C       1.363169700     0.703323000     1.989633700
H      -1.079751300     0.560013100    -1.667290900
C       0.369109300     1.366008800     1.071637400
H      -0.009146600    -3.537229300    -0.906507900
O      -1.396609400     2.355182400    -0.815929100
N       1.932787100    -0.395873800     1.712752800