16
0 2 def2QZVP
N       0.910322300     1.030798700    -3.041918200
H      -0.447386100    -1.460865200     1.722537400
H       0.224880800    -0.598696300     3.148208900
C       0.386784700    -0.860022800     2.096827300
H       1.102080000     1.313162900    -2.072664200
P       0.493053400     0.646336300     1.123669000
H       1.318532000    -1.423112800     1.993267000
H       1.156761600     1.602426300    -3.848385700
Li     -0.440287600    -0.733320300    -1.503695900
Cl     -1.763337500    -2.209500600    -0.564123700
O       0.562226800     0.461162000    -0.377820200
H      -0.538283000     1.491724700     1.555435600
H      -2.328720300    -0.713624600     0.440068000
O       0.125672700     0.025970500    -3.226150900
H       1.648735200     1.303706500     1.599760900
F      -2.411035100     0.123854700     0.954984800