16
0 2 def2QZVP
Si      1.247046400     0.827703600     0.082727300
H       1.978683300     2.449693400    -1.474555100
O       1.664582600     1.533128400    -1.473321600
B      -0.407506200     1.382270600     1.234631500
H      -0.351603200     2.148445000     2.153597500
B      -0.718591500    -1.988428000    -0.202563400
H      -1.180906000     1.863560200     0.378371100
Si     -0.643103400    -0.647247500     1.772575100
Mg     -1.540570400     0.209392200    -0.573422200
H      -0.805026400    -3.086980000     0.344586100
B       0.510264700    -0.917570100    -0.157467000
Mg      0.933877000    -2.714476200     1.345564400
H      -1.410775200     0.677998100    -2.274138700
H      -1.656367600    -1.907185400    -0.995917500
Al      1.959774100    -0.251182200     2.199453400
Li      0.420221900     0.420877800    -2.360120800