16
0 2 def2QZVP
H      -0.950071900    -1.999582400    -0.570895000
S      -1.419670000     0.205811100     0.879570900
B       0.060774100     0.787722000     1.934990900
O      -0.571505300    -0.086039500    -2.411476100
Mg      0.319108800     2.163361300    -0.013702400
H      -0.648422300    -0.952420200    -1.962046600
H      -0.706244900    -2.248045100     1.443552200
H      -0.086139900     1.276734900     3.011179900
Si      1.522984500    -0.175266200     0.996500600
H       0.362429800     0.173518200    -2.225441900
B      -0.639879700    -1.520081000     0.497766200
Li     -1.722855500     1.170757100    -1.517232900
F      -0.969174400     2.754511000    -1.201106400
H       2.597655400    -1.019071000     1.582609400
H       0.671029500    -1.378026500     0.291908900
S       2.179981800     0.846116400    -0.736177800