16
0 1 def2QZVP
B       0.158587100    -1.347807700    -1.110615200
Si     -1.715706800     2.435871200    -1.496696000
H       2.189844100     0.752685500     0.253493600
P       1.676550600    -1.479525200     1.563634100
H      -0.064100400    -2.492728900    -1.359003000
O      -0.305773600    -0.395636900    -2.164234100
Li     -0.995571000     0.992904100     0.727301500
Al      2.647484800    -1.747700600    -0.675651800
C       0.613696500    -0.835087200     0.209035500
B      -0.862944100     0.711779600    -1.879040100
H      -2.645521700     1.701491400    -0.530152800
Cl     -1.535162700     0.004425700     2.645783900
H       0.955732100     0.919756100     1.583876600
Al     -0.902406900    -2.161295700     1.859415500
C       1.396393900     0.258323200     0.830818100
H      -0.611101800     2.682545500    -0.457965800