16
0 2 def2QZVP
O       2.692588600     0.234705500     0.046833500
Si      0.399709400    -0.970414700    -1.721037400
O      -0.211961000     1.950745800     1.411563200
H       0.567817800     0.605445400    -1.679929600
H       3.386842100     0.126946500     0.716719500
P       2.618462500    -1.204699200    -1.022299300
H      -1.963452900     0.676964600    -0.871809400
H      -2.996732700    -0.491945300    -0.060129000
H       0.191427500    -0.889669600     0.713641000
Al     -1.776172200     1.288668100     1.483263400
H      -2.872466000     1.686642600     2.559298100
Mg      0.808463500     0.907449700     0.282416400
C      -2.011490100    -0.014753800    -0.010362000
H       3.145481100    -0.531660000    -2.159546700
H      -1.132053100    -2.251453100     0.299290800
B      -0.846464600    -1.122972500     0.012087700