16
0 2 def2QZVP
B       1.799557600    -0.047548400    -0.187121300
O      -1.499068400     1.161775800    -1.158661700
F       3.050561900    -0.262492300    -0.642201700
B      -0.903081400    -1.086163300     0.820504600
H       0.840518600    -2.556802400    -0.258268400
H       1.876858200     2.015535200     0.172361500
B       0.614281500    -1.422623400     0.055566400
H      -1.117162300    -1.321192000     1.975082500
H       1.550028400    -1.071317200     0.824669400
H       0.867521400    -0.773838400    -1.008459600
Al     -0.521064700     1.153460500     0.542107600
H      -1.241002900     2.310239200     1.351497900
H      -2.163003600     1.865258300    -1.254963400
N       1.259248500     1.212738200     0.159151800
Cl     -2.427519700    -1.454204200    -0.230254700
H      -1.986672900     0.277174400    -1.161010800