16
0 1 def2QZVP
C       0.588586800    -0.184307200     1.584714400
B      -1.431821200     0.207456300     0.031237100
B      -0.884848300    -0.136174700     1.696520600
H       0.508940100     1.255015800    -1.438986000
Si      0.710130500    -1.807357100    -1.293338000
F       3.419432200     1.571381300    -0.150400200
H       2.105044000    -1.113588600    -1.296524000
B       0.054525400    -0.710205000     0.252805700
H      -0.049388400    -0.621990500    -2.234473100
H      -1.498185600     1.023585900     1.002780400
H      -2.515740700    -0.239942400    -0.366265200
B      -0.245776300     0.308010200    -1.299028100
Si     -2.016608400     1.218319200    -1.593444500
Mg      1.985406800     0.537415300    -0.072413200
H       1.325289100    -0.533896500     2.302979500
Cl     -2.054985800    -0.773721900     2.873834500