16
0 1 def2QZVP
B      -2.305737400     0.477835700     0.438260400
C       0.149954000     0.874113300    -0.402863100
Cl      0.214316600    -1.172436400    -3.262376500
P       2.199497300    -1.161417300    -2.616088400
H      -0.385919600    -0.601154200     0.770802900
B      -2.490517600     1.200464800     1.991108800
F      -2.898680500    -0.806660600     0.351286800
H       3.288873900     1.205878900    -0.425317200
O      -2.580028700     1.740735200     3.080199100
Al      2.046401700    -2.429946500    -0.696248200
Al      2.046876200     0.226143800    -0.427425700
H      -2.627216300     1.237954200    -0.451967400
N      -0.738827100     0.221916100     0.268148300
N       2.106742700    -1.339736600     0.659011900
H      -0.269915100     1.732505300    -0.938266200
H       2.244180000    -1.406195600     1.661734700