16
0 1 def2QZVP
O      -0.996611600     1.338855100    -2.109344300
Al      1.734111300    -0.045674300     1.945721600
Si     -0.617099100    -0.169537000     0.894619900
H      -2.893806200     2.419752000    -0.280109100
Li      0.514171200     0.353211000    -1.724927300
H      -1.438407400     1.743950900    -2.866489200
Cl      1.510341500    -1.722080000    -2.006641600
Al     -1.638855900     1.476009300    -0.443533400
H       1.238660100    -2.051866000    -0.680183700
H      -0.723976200    -2.825768100     0.983657700
B       0.170624000    -2.062558400     1.236153900
H      -0.371610000     2.503967500     0.443463200
H       0.577409000    -2.161411100     2.379239200
B       0.339531700     1.512007200     0.754092300
H       1.164821100    -2.307664300     0.520809400
H       1.430696500     1.998806300     0.953471500