16
0 1 def2QZVP
H      -1.110560000    -0.141138600     0.060860400
F      -1.020327900    -0.772588100    -2.245783700
F      -1.174173300     1.541952500    -1.995978400
S      -0.956909700     1.879571700     2.564040300
H       0.985743500     0.096856400     3.836887400
F       0.868383200     0.492774200    -1.607523600
Si      0.297762500     0.162160800     2.538340500
F      -0.592775900    -1.195458700     2.419623600
B      -0.383985200     0.582484600    -2.509308200
O       1.332823900     0.137185300     1.290796200
Al      1.421310100    -0.595333200    -0.253844000
Si     -1.386256000    -1.519194900    -0.510255700
H      -1.207648700     1.822737400     1.240129900
H       0.203387100    -1.855592100    -0.424748900
H      -0.023139700     0.619679000    -3.639547400
H       2.746366200    -1.256096200    -0.763688600