16
0 2 def2QZVP
B      -1.135763200    -0.982029100    -2.569804500
H      -2.894802400    -1.747503700    -3.074666100
H       0.079384400    -0.624807900     1.842724300
O      -1.965236800    -1.744607300    -3.351229200
H       0.019129700    -0.959170400    -2.884926200
H      -2.524297900    -0.241616200    -1.147935500
N      -1.544072200    -0.223522100    -1.423617500
F      -1.116220500     1.535101800     0.899601500
P       1.776114300     1.472556600    -0.337696200
C       1.084716500    -0.313397000     2.164709000
B       2.152531400     0.423935000     1.307499700
Al      0.585505000     2.389695900     1.557139400
O       1.084470100     1.053361100     2.670000400
H       3.286288900     0.411436800     1.665515700
F       1.458901600    -1.169270700     3.172474300
Al     -0.346648900     0.719837200    -0.489789100