16
0 1 def2QZVP
Na     -0.981773000     1.898002100    -1.279358200
H       2.329321100     0.012376600    -2.621848800
O      -1.580683800     2.520216700     0.672284000
H       0.423240500     0.746687100    -2.670520200
F      -2.225969900     0.975145100     2.407957200
H      -1.875171300    -1.687205200     0.773868600
H       1.428948200     0.565258700    -0.916718000
O       1.974434200    -1.095404700     1.180916500
N      -0.927683500     0.190246700     0.557347300
H       2.866847400    -0.835474400     0.928144800
H      -1.182514200    -1.131679600     2.174506500
Cl      0.537463300    -1.703696900    -1.778304600
B       1.281239600     0.140901000    -2.073646300
B      -1.600898700     1.342352300     1.225918000
N      -1.060676900    -1.213059800     1.163040200
Al      0.593877200    -0.724665700     0.256413000