16
0 2 def2QZVP
H       1.580096300     0.368325600     1.076548200
H       0.183427000     1.705774100    -1.747027300
H      -0.315310000    -0.246336900    -3.096366200
N      -0.069008400     0.918568400    -1.147629600
Al     -0.644614900     1.403237600     0.571294100
C      -1.470430700    -1.306278200    -1.303907000
S       0.360484800    -0.969749700     2.567865500
F       2.305014300     0.235043600    -0.467213400
H      -1.678107500    -2.225697200    -1.838409000
S      -2.524610400     0.214142400     1.191650500
H       1.125151500     1.221280300     2.455273000
H       1.384112400     0.453283400    -0.849304900
H       1.626381400    -1.311217100     2.898839000
B      -0.612618000    -0.214721300    -1.932234100
N       0.804116200     0.552888000     1.752351300
B      -2.054084000    -0.798543000    -0.131730100