33
0 1 def2QZVP
N      -1.115204610     2.767674670     0.101993700
C       0.161274390     2.390612670     0.461423700
C       0.251321390     1.017490670     0.504863700
C      -1.048733610     0.519310670     0.150581700
C      -1.588721610    -0.775482330     0.029741700
C      -2.916465610    -0.907119330    -0.337291300
C      -3.728664610     0.221729670    -0.587295300
C      -3.222997610     1.506276670    -0.466121300
C      -1.880030610     1.641020670    -0.093107300
H      -1.437306610     3.714099670     0.016156700
H       0.914680390     3.133272670     0.669579700
H      -0.997127610    -1.664386330     0.206755700
H      -4.753606610     0.064292670    -0.894996300
H      -3.846549610     2.368657670    -0.663675300
O      -3.447147610    -2.173766330    -0.505028300
C      -4.286679610    -2.562167330     0.579466700
H      -5.131882610    -1.879634330     0.691438700
H      -3.723170610    -2.586675330     1.515274700
H      -4.654654610    -3.558345330     0.348497700
C       1.469751390     0.202212670     0.803840700
C       2.066819390    -0.414068330    -0.472252300
N       3.224645390    -1.253109330    -0.225264300
C       4.530897390    -0.851488330    -0.142965300
C       4.833865390     0.563881670    -0.595601300
H       1.224753390    -0.604407330     1.500185700
H       2.226689390     0.819691670     1.291893700
H       2.339667390     0.379633670    -1.165271300
H       1.307881390    -1.015671330    -0.973856300
H       3.069368390    -2.182128330     0.134135700
O       5.407903390    -1.610171330     0.243903700
H       5.893403390     0.740278670    -0.442869300
H       4.259402390     1.298529670    -0.032108300
H       4.596619390     0.689954670    -1.652030300