33
0 1 def2QZVP
N      -0.219566670     2.639738700     0.154897030
C       0.867476330     1.948595700     0.645547030
C       0.544219330     0.621548700     0.817912030
C      -0.824581670     0.482897700     0.400130030
C      -1.706887670    -0.606271300     0.340981030
C      -3.002722670    -0.399231300    -0.116638970
C      -3.434147670     0.885337700    -0.517648970
C      -2.573270670     1.976524700    -0.463709970
C      -1.272386670     1.766299700    -0.005712970
H      -0.236703670     3.621891700    -0.049270970
H       1.800946330     2.454243700     0.834405030
H      -1.412279670    -1.602320300     0.644448030
H      -4.441486670     1.039367700    -0.871910970
H      -2.916136670     2.955803700    -0.771876970
O      -3.805702670    -1.511436300    -0.146019970
C      -5.134587670    -1.333956300    -0.606036970
H      -5.156902670    -0.979259300    -1.638785970
H      -5.688281670    -0.638118300     0.028072030
H      -5.599967670    -2.313681300    -0.553921970
C       1.457481330    -0.475569300     1.265098030
C       1.985733330    -1.295312300     0.074120030
N       2.729471330    -0.489818300    -0.877822970
C       4.048610330    -0.133471300    -0.769054970
C       4.907248330    -0.977216300     0.153357030
H       0.933360330    -1.147774300     1.950365030
H       2.304359330    -0.053914300     1.811034030
H       1.146139330    -1.748412300    -0.454553970
H       2.620438330    -2.107259300     0.424709030
H       2.191709330     0.171469700    -1.418553970
O       4.514960330     0.792514700    -1.418069970
H       4.874001330    -2.027824300    -0.134065970
H       4.572261330    -0.901044300     1.187851030
H       5.927196330    -0.614343300     0.080730030