33
0 1 def2QZVP
N      -0.064899270     2.461664850    -0.511136610
C       0.934739730     1.674443850    -1.044908610
C       0.555604730     0.351419850    -1.024636610
C      -0.757548270     0.321243850    -0.441579610
C      -1.668660270    -0.715054150    -0.158581610
C      -2.883101270    -0.389988150     0.420452390
C      -3.221561270     0.946965850     0.725923390
C      -2.346058270     1.985625850     0.449977390
C      -1.116992270     1.658978850    -0.135814610
H      -0.042932270     3.462767850    -0.446858610
H       1.848887730     2.115188850    -1.409073610
H      -1.445450270    -1.751418150    -0.376116610
H      -4.174677270     1.144634850     1.197690390
H      -2.606423270     3.008657850     0.689466390
O      -3.770188270    -1.401828150     0.744623390
C      -4.837149270    -1.510739150    -0.194206610
H      -5.416148270    -0.585957150    -0.244885610
H      -4.453941270    -1.745083150    -1.190248610
H      -5.476225270    -2.319322150     0.150814390
C       1.383384730    -0.817850150    -1.453957610
C       1.859959730    -1.660196150    -0.258539610
N       2.578059730    -0.875057150     0.730438390
C       3.848269730    -0.439934150     0.493967390
C       4.411139730     0.517016850     1.525969390
H       0.813886730    -1.465764150    -2.126145610
H       2.260972730    -0.471532150    -2.000239610
H       1.010909730    -2.122211150     0.244161390
H       2.524704730    -2.447940150    -0.608939610
H       2.041210730    -0.399828150     1.433998390
O       4.499329730    -0.804184150    -0.476482610
H       4.549110730     1.490970850     1.058348390
H       3.772680730     0.628110850     2.400425390
H       5.389104730     0.156196850     1.836095390