33
0 1 def2QZVP
N       0.133671360     3.219427480     0.345462640
C      -1.133803640     2.951209480    -0.130310360
C      -1.200462640     1.658071480    -0.599700360
C       0.109772360     1.098190490    -0.409593360
C       0.663989360    -0.156917520    -0.701587360
C       1.993242360    -0.395147520    -0.376317360
C       2.787576360     0.608822480     0.223112640
C       2.258150360     1.864926490     0.502111640
C       0.919816360     2.099894480     0.183506640
H       0.443265360     4.104826490     0.701267640
H      -1.898799640     3.710895480    -0.104010360
H       0.088205360    -0.937840520    -1.180219360
H       3.820242360     0.416858480     0.470024640
H       2.878104360     2.628116480     0.954769640
O       2.455584360    -1.654887520    -0.668812360
C       3.818792360    -1.922434510    -0.387309360
H       4.033062360    -1.832800520     0.680054640
H       4.479992360    -1.256822510    -0.946429360
H       3.991334360    -2.947232520    -0.702196360
C      -2.403044640     0.941934480    -1.133587360
C      -3.191395640     0.216021480    -0.030703360
N      -2.383815640    -0.708976510     0.746564640
C      -2.045927640    -1.936607520     0.253903640
C      -1.060054640    -2.723557520     1.092854640
H      -2.098641640     0.207771480    -1.880747360
H      -3.076863640     1.645980480    -1.627823360
H      -4.006550640    -0.352606520    -0.475376360
H      -3.613124640     0.946414480     0.660620640
H      -1.817044640    -0.333270510     1.486484640
O      -2.510180640    -2.373617520    -0.791469360
H      -0.955704640    -2.328035520     2.101819640
H      -0.085909640    -2.701173510     0.604339640
H      -1.393477640    -3.757433520     1.139295640