33
0 1 def2QZVP
N       0.295934030     2.736198490     0.576570760
C       1.339490030     2.357445490    -0.239787240
C       1.070574030     1.131794490    -0.809300240
C      -0.224754970     0.739232480    -0.325719240
C      -1.047071970    -0.382759520    -0.547574240
C      -2.275588970    -0.437974520     0.085317760
C      -2.712209970     0.594221480     0.946219760
C      -1.923338970     1.708024480     1.181607760
C      -0.682788970     1.768979480     0.534524760
H       0.231711030     3.608925480     1.067885760
H       2.202865030     2.992825480    -0.357313240
H      -0.739002970    -1.205450520    -1.177868240
H      -3.669784970     0.486763480     1.437685760
H      -2.254747970     2.493582480     1.848472760
O      -3.080177970    -1.547773520    -0.095166240
C      -4.144962970    -1.303200510    -1.008923240
H      -4.792521970    -0.496149520    -0.658096240
H      -3.756389970    -1.042004520    -1.996532240
H      -4.718378970    -2.224195520    -1.074407240
C       1.997318030     0.352537490    -1.689527240
C       2.851081030    -0.666380510    -0.913772240
N       2.084865030    -1.740892520    -0.316700240
C       1.616282030    -1.848399520     0.968272760
C       2.075266030    -0.800188520     1.960964760
H       1.431319030    -0.176093520    -2.461055240
H       2.675056030     1.036511480    -2.207650240
H       3.587659030    -1.105791510    -1.590685240
H       3.403955030    -0.151595510    -0.130226240
H       1.722653030    -2.456490520    -0.927554240
O       0.883058030    -2.771611520     1.289644760
H       3.161569030    -0.805044520     2.058772760
H       1.763077030     0.196622480     1.652114760
H       1.627989030    -1.041668520     2.919803760