33
0 1 def2QZVP
N      -0.244278360     2.634399210     0.274662610
C       0.810065640     1.871650210     0.729459610
C       0.465711640     0.538226210     0.712258610
C      -0.877938360     0.476347210     0.208366610
C      -1.771620360    -0.583675790    -0.037892390
C      -3.026724360    -0.287424790    -0.539892390
C      -3.421513360     1.043433210    -0.803161390
C      -2.563225360     2.104302210    -0.561218390
C      -1.292650360     1.806628210    -0.053384390
H      -0.240095360     3.634361210     0.189663610
H       1.735298640     2.335807210     1.031090610
H      -1.503055360    -1.616264790     0.144075610
H      -4.404980360     1.219445210    -1.217642390
H      -2.866691360     3.122024210    -0.770177390
O      -3.898110360    -1.322381790    -0.830813390
C      -4.930682360    -1.456142790     0.142438610
H      -5.532914360    -0.547550790     0.209976610
H      -4.508985360    -1.676810790     1.126036610
H      -5.558576360    -2.282750790    -0.179571390
C       1.344633640    -0.620956790     1.061808610
C       1.951100640    -1.272813790    -0.194129390
N       2.757908640    -0.350839790    -0.972902390
C       4.065667640    -0.022565790    -0.724686390
C       4.859718640    -0.991898790     0.129483610
H       0.774348640    -1.375971790     1.610104610
H       2.153305640    -0.289065790     1.716612610
H       1.148686640    -1.639702790    -0.835427390
H       2.559909640    -2.131945790     0.082061610
H       2.258512640     0.381148210    -1.456181390
O       4.573554640     0.980666210    -1.205852390
H       4.850455640    -1.991772790    -0.303723390
H       4.452165640    -1.058762790     1.138222610
H       5.880997640    -0.629139790     0.180333610