33
0 1 def2QZVP
N       1.496232210    -3.057165580    -0.040002490
C       0.192388210    -2.731826580     0.265791520
C       0.071028210    -1.366636580     0.404587510
C       1.377570210    -0.821063580     0.168115520
C       1.883617210     0.497812420     0.175341520
C       3.232227210     0.684930420    -0.089280480
C       4.084441210    -0.413575580    -0.361737480
C       3.606549210    -1.709947580    -0.370986480
C       2.244360210    -1.904267580    -0.103488480
H       1.844852210    -3.988211580    -0.174870480
H      -0.559472790    -3.498010580     0.364359510
H       1.226653210     1.327839420     0.389910520
H       5.126264210    -0.205191580    -0.561483480
H       4.270049210    -2.539653580    -0.578189480
O       3.861326210     1.902940420    -0.114625480
C       3.051470210     3.032232420     0.157524520
H       2.615388210     2.977155420     1.157775520
H       2.251208210     3.134330420    -0.579516490
H       3.708400210     3.894766420     0.097505520
C      -1.185196790    -0.602616580     0.680691510
C      -1.759434790     0.014941420    -0.602423480
N      -2.975140790     0.777710420    -0.368736480
C      -4.178710790     0.158702420    -0.208034480
C      -5.348005790     1.071202420     0.104032510
H      -0.992103790     0.194012420     1.404828520
H      -1.942301790    -1.258896580     1.110668520
H      -1.994303790    -0.782354580    -1.305535480
H      -1.026040790     0.673141420    -1.068483480
H      -2.913416790     1.764231420    -0.196482490
O      -4.311619790    -1.053141580    -0.312610480
H      -6.146195790     0.864403420    -0.605288480
H      -5.093521790     2.128749420     0.060880510
H      -5.718559790     0.833457420     1.099762520