33
0 1 def2QZVP
N       1.243525850     2.976933670     0.005774580
C      -0.047852150     2.612397670     0.325296580
C      -0.150259150     1.240871670     0.376059580
C       1.155933850     0.730232670     0.066524580
C       1.688040850    -0.569559330    -0.031159420
C       3.025229850    -0.715350330    -0.356327420
C       3.855244850     0.404214670    -0.586879420
C       3.357305850     1.694128670    -0.488177420
C       2.004806850     1.843452670    -0.158019420
H       1.573395850     3.920160670    -0.084770420
H      -0.805241150     3.360289670     0.496160580
H       1.082151850    -1.451616330     0.131800580
H       4.887827850     0.235841670    -0.861669420
H       3.994646850     2.549706670    -0.671200420
O       3.550427850    -1.988792330    -0.499609420
C       4.344216850    -2.378402330     0.617712580
H       5.190601850    -1.702593330     0.758538580
H       3.745634850    -2.392519330     1.531855580
H       4.712268850    -3.379169330     0.406691580
C      -1.387214150     0.440417670     0.634970580
C      -1.983234150    -0.105365330    -0.670684420
N      -3.177585150    -0.905682330    -0.454949420
C      -4.386266150    -0.323177330    -0.218190420
C      -5.532817150    -1.277549330     0.049494580
H      -1.162552150    -0.396783330     1.301491580
H      -2.142995150     1.055604670     1.123746580
H      -2.250362150     0.730507670    -1.315282420
H      -1.250622150    -0.718675330    -1.195106420
H      -3.095539150    -1.902105330    -0.370972420
O      -4.541120150     0.890794670    -0.225510420
H      -6.342317150    -1.046352330    -0.639367420
H      -5.256979150    -2.324985330    -0.058851420
H      -5.898304150    -1.106876330     1.060609580