33
0 1 def2QZVP
N      -0.180616700     2.668845390    -0.407989180
C       0.815524300     1.894040390    -0.963412180
C       0.400986300     0.582490390    -1.043751180
C      -0.930155700     0.549308390    -0.505187180
C      -1.869716700    -0.491252610    -0.327438180
C      -3.102451700    -0.175559610     0.224902820
C      -3.416361700     1.153101390     0.604261820
C      -2.510807700     2.182874390     0.435544820
C      -1.263758700     1.869092390    -0.122519180
H      -0.140298700     3.663541390    -0.282678180
H       1.751080300     2.333469390    -1.270097180
H      -1.625196700    -1.498623610    -0.629772180
H      -4.393155700     1.337861390     1.029079820
H      -2.766461700     3.193774390     0.725949820
O      -4.108661700    -1.076637610     0.453122820
C      -3.845931700    -2.418446610     0.080323820
H      -2.997609700    -2.825960610     0.635194820
H      -3.649978700    -2.501761610    -0.991050180
H      -4.741825700    -2.979480610     0.328249820
C       1.211153300    -0.579626610    -1.523807180
C       1.646262300    -1.496365610    -0.368349180
N       2.386227300    -0.785589610     0.659811820
C       3.688854300    -0.429826610     0.465148820
C       4.282226300     0.472061390     1.529149820
H       2.106848300    -0.225603610    -2.035253180
H       0.639945300    -1.175280610    -2.241691180
H       2.286013300    -2.290395610    -0.749111180
H       0.775716300    -1.948938610     0.106097820
H       1.859522300    -0.276196610     1.347350820
O       4.343253300    -0.820921610    -0.492168180
H       5.222856300     0.040781390     1.863921820
H       3.625010300     0.614886390     2.384904820
H       4.501509300     1.440339390     1.081258820