33
0 1 def2QZVP
N      -0.929719730     2.637875030     0.034819300
C       0.353167270     2.174776030    -0.174986700
C       0.342335270     0.805247030    -0.321553700
C      -1.031433730     0.400449030    -0.194402700
C      -1.668832730    -0.847047970    -0.249266700
C      -3.047793730    -0.904295970    -0.084019700
C      -3.801623730     0.270501030     0.136266300
C      -3.183655730     1.515564030     0.193678300
C      -1.799799730     1.570310030     0.027372300
H      -1.182896730     3.599369030     0.166766300
H       1.177259270     2.868361030    -0.204267700
H      -1.120786730    -1.764880970    -0.416043700
H      -4.871707730     0.218972030     0.263784300
H      -3.772284730     2.407920030     0.363191300
O      -3.601355730    -2.157646970    -0.150295700
C      -5.005617730    -2.251304970     0.015788300
H      -5.538709730    -1.698985970    -0.761220700
H      -5.318068730    -1.888120970     0.997342300
H      -5.244601730    -3.307249970    -0.067806700
C       1.504322270    -0.109922970    -0.561991700
C       2.841911270     0.624388030    -0.664615700
N       3.968115270    -0.261373970    -0.894386700
C       4.705274270    -0.915449970     0.057492300
C       4.502858270    -0.473338970     1.493664300
H       1.344319270    -0.677729970    -1.483783700
H       1.567421270    -0.849830970     0.241389300
H       3.024684270     1.195251030     0.244291300
H       2.803496270     1.342365030    -1.485587700
H       4.090505270    -0.638266970    -1.821432700
O       5.508313270    -1.784788970    -0.247504700
H       5.126835270    -1.099036970     2.123062300
H       3.462644270    -0.571144970     1.803016300
H       4.795426270     0.569070030     1.621242300