33
0 1 def2QZVP
N      -0.758797940     2.649443820     0.525708030
C      -1.703427940     2.195647820    -0.368012970
C      -1.250590940     1.056310820    -0.992731970
C       0.048729060     0.791091820    -0.446909970
C       1.009971060    -0.212636180    -0.675066970
C       2.177558060    -0.196479180     0.067250030
C       2.423369060     0.804146820     1.034461030
C       1.503460060     1.816246820     1.262064030
C       0.320699060     1.800239820     0.512280030
H      -0.879104940     3.430070820     1.144697030
H      -2.645978940     2.707496820    -0.474010970
H       0.859639060    -0.997713180    -1.405231970
H       3.339358060     0.758165820     1.608057030
H       1.692413060     2.579313820     2.006208030
O       3.102790060    -1.211645180    -0.111380970
C       4.243998060    -0.785456180    -0.851197970
H       4.765684060     0.028225820    -0.342918970
H       3.954289060    -0.452052180    -1.850649970
H       4.904863060    -1.644839180    -0.929900970
C      -2.026992940     0.162761820    -1.909134970
C      -2.877420940    -0.849769180    -1.117393970
N      -2.103904940    -1.581806180    -0.130481970
C      -2.024169940    -1.157973180     1.172000030
C      -0.932098940    -1.816847180     1.988031030
H      -1.341474940    -0.374294180    -2.570048970
H      -2.691979940     0.744206820    -2.552092970
H      -3.354621940    -1.555787180    -1.799529970
H      -3.653976940    -0.325482180    -0.564890970
H      -1.357157940    -2.169950180    -0.458583970
O      -2.771568940    -0.313341180     1.643193030
H      -0.058626940    -1.163216180     1.981352030
H      -0.638603940    -2.787985180     1.592047030
H      -1.276320940    -1.926096180     3.012823030