33
0 1 def2QZVP
N       0.629765610     2.847753730     0.591709420
C       1.721463610     2.298732730    -0.045086580
C       1.340485610     1.178724730    -0.751521580
C      -0.075782390     1.036938730    -0.547348580
C      -1.035708390     0.111825730    -0.999265580
C      -2.351230390     0.271746730    -0.600493580
C      -2.743638390     1.339681730     0.236409420
C      -1.820896390     2.268372730     0.690756420
C      -0.488300390     2.100616730     0.294831420
H       0.637504610     3.697059730     1.126267420
H       2.696563610     2.749381730     0.049999420
H      -0.773963390    -0.717548270    -1.641631580
H      -3.787938390     1.422006730     0.505587420
H      -2.124693390     3.089981730     1.326644420
O      -3.316756390    -0.611771270    -1.041700580
C      -3.429001390    -1.751500270    -0.181158580
H      -2.477647390    -2.278388270    -0.102204580
H      -3.751785390    -1.447597270     0.817764420
H      -4.182468390    -2.397708270    -0.624149580
C       2.256248610     0.267743730    -1.508423580
C       2.688184610    -0.969305270    -0.701001580
N       1.605723610    -1.892120270    -0.419130580
C       0.831812610    -1.981630270     0.705826420
C       1.255331610    -1.160888270     1.905326420
H       1.780173610    -0.065211270    -2.434667580
H       3.158981610     0.813251730    -1.796395580
H       3.459088610    -1.509011270    -1.255799580
H       3.132930610    -0.651734270     0.240046420
H       1.252103610    -2.444636270    -1.185037580
O      -0.144859390    -2.720151270     0.735704420
H       2.263166610    -1.428182270     2.224866420
H       1.238720610    -0.096363270     1.674540420
H       0.556420610    -1.370071270     2.708736420