33
0 1 def2QZVP
N      -0.356467760     2.833918270     0.190429150
C       0.692664240     2.082837270     0.672576150
C       0.318506240     0.758702270     0.756530150
C      -1.037856760     0.692226270     0.290719150
C      -1.952873760    -0.374352730     0.144611150
C      -3.221607760    -0.087985730    -0.337293850
C      -3.594731760     1.236582270    -0.675918850
C      -2.713138760     2.290973270    -0.537586850
C      -1.429172760     2.006711270    -0.051723850
H      -0.337663760     3.826234270     0.042170150
H       1.634855240     2.545338270     0.918920150
H      -1.660533760    -1.379373730     0.410762150
H      -4.597323760     1.397430270    -1.046857850
H      -3.013173760     3.297640270    -0.798297850
O      -4.210711760    -1.015708730    -0.530075850
C      -3.886608760    -2.355903730    -0.203762850
H      -3.630809760    -2.456481730     0.853525150
H      -3.057105760    -2.723238730    -0.812526850
H      -4.776536760    -2.940245730    -0.416852850
C       1.181897240    -0.392429730     1.166267150
C       1.732359240    -1.152148730    -0.054075850
N       2.536231240    -0.312835730    -0.924028850
C       3.861258240    -0.009326730    -0.743881850
C       4.657444240    -0.941482730     0.148935150
H       0.613473240    -1.089641730     1.788660150
H       2.019044240    -0.032746730     1.768611150
H       0.900936240    -1.543563730    -0.642057850
H       2.328567240    -2.004623730     0.266800150
H       2.040063240     0.403013270    -1.434363850
O       4.380370240     0.941613270    -1.311209850
H       4.600924240    -1.969082730    -0.209296850
H       4.287147240    -0.921757730     1.173978150
H       5.690575240    -0.610289730     0.136317150