33
0 1 def2QZVP
N      -0.291221940     3.223123700     0.340764270
C       0.923392060     2.918877700    -0.238778730
C       0.911986060     1.616261700    -0.691698730
C      -0.388467940     1.096172700    -0.379917730
C      -0.990705940    -0.159860300    -0.611236730
C      -2.293412940    -0.348830300    -0.175894730
C      -3.006754940     0.689010700     0.475601270
C      -2.434336940     1.927451700     0.698664270
C      -1.116152940     2.123228700     0.261658270
H      -0.551270940     4.123167700     0.700046270
H       1.704827060     3.660067700    -0.291785730
H      -0.435542940    -0.941494300    -1.107591730
H      -4.020524940     0.483430700     0.790323270
H      -2.994448940     2.711737700     1.191507270
O      -2.994632940    -1.516434300    -0.318374730
C      -2.344687940    -2.548853300    -1.047291730
H      -1.419105940    -2.864045300    -0.562048730
H      -2.120408940    -2.227821300    -2.066793730
H      -3.042912940    -3.379973300    -1.072824730
C       2.035453060     0.846270700    -1.314804730
C       2.974315060     0.218425700    -0.268501730
N       2.281961060    -0.499817300     0.789175270
C       1.672272060    -1.697655300     0.564747270
C       0.835421060    -2.212599300     1.717512270
H       2.634472060     1.489110700    -1.964166730
H       1.628280060     0.049706700    -1.937651730
H       3.564643060     0.999616700     0.210889270
H       3.656952060    -0.475362300    -0.757764730
H       1.982270060     0.025785700     1.591596270
O       1.786811060    -2.307079300    -0.492688730
H      -0.180228940    -1.828334300     1.611717270
H       1.226468060    -1.895715300     2.683272270
H       0.805295060    -3.297571300     1.672341270