33
0 1 def2QZVP
N      -1.544626850    -3.024106450     0.024288450
C      -0.187301850    -3.065101450    -0.213897550
C       0.305342150    -1.789389450    -0.366633550
C      -0.818097850    -0.904470450    -0.213500550
C      -0.959409850     0.490239550    -0.268983550
C      -2.218593850     1.048551550    -0.084172550
C      -3.346264850     0.231629550     0.156254450
C      -3.224962850    -1.152849450     0.212337450
C      -1.959814850    -1.710708450     0.026633450
H      -2.136611850    -3.824962450     0.144695450
H       0.332292150    -4.008563450    -0.264552550
H      -0.120624850     1.147625550    -0.455415550
H      -4.321143850     0.671189550     0.299048450
H      -4.096482850    -1.768306450     0.394579450
O      -2.275019850     2.417470550    -0.152363550
C      -3.546175850     3.019471550     0.024085450
H      -3.959024850     2.801125550     1.011386450
H      -4.252245850     2.695867550    -0.743743550
H      -3.383187850     4.089143550    -0.067192550
C       1.729472150    -1.391255450    -0.593588550
C       2.353063150    -0.773788450     0.669163450
N       3.729236150    -0.349045450     0.492277450
C       4.166302150     0.862095550     0.025583450
C       3.125832150     1.958253550    -0.092927550
H       1.796969150    -0.668506450    -1.411047550
H       2.319714150    -2.260826450    -0.891510550
H       2.320869150    -1.507113450     1.476300450
H       1.756333150     0.074617550     0.998228450
H       4.446519150    -1.057466450     0.490736450
O       5.342076150     1.049328550    -0.252579550
H       2.665245150     2.168586550     0.872162450
H       2.335353150     1.680615550    -0.789947550
H       3.624971150     2.850648550    -0.455704550