33
0 1 def2QZVP
N      -0.325719670     2.735176640    -0.029891940
C       0.768116330     2.089669640     0.505810060
C       0.433273330     0.795201640     0.836014060
C      -0.947210670     0.632020640     0.474056060
C      -1.850081670    -0.445223360     0.560644060
C      -3.149964670    -0.255229360     0.125466060
C      -3.579570670     0.984748640    -0.398289940
C      -2.708850670     2.058259640    -0.498078940
C      -1.392240670     1.867153640    -0.061200940
H      -0.339734670     3.689994640    -0.338574940
H       1.711870330     2.600394640     0.610424060
H      -1.562983670    -1.404688360     0.971103060
H      -4.612406670     1.088756640    -0.702262940
H      -3.044153670     3.009707640    -0.890286940
O      -4.059846670    -1.290484360     0.248852060
C      -4.337691670    -1.925087360    -0.996530940
H      -3.429966670    -2.363570360    -1.418355940
H      -4.759168670    -1.220377360    -1.716584940
H      -5.061496670    -2.709855360    -0.792936940
C       1.346241330    -0.257702360     1.380326060
C       1.840198330    -1.208357360     0.275086060
N       2.567119330    -0.520354360    -0.776518940
C       3.892211330    -0.169671360    -0.738722940
C       4.766195330    -0.918403360     0.248728060
H       0.831680330    -0.844786360     2.146099060
H       2.208978330     0.211140640     1.858606060
H       0.984881330    -1.708772360    -0.180950940
H       2.476841330    -1.983048360     0.698718060
H       2.022478330     0.085952640    -1.372025940
O       4.349464330     0.675198640    -1.495618940
H       4.717038330    -1.993385360     0.077010060
H       4.457459330    -0.727618360     1.276559060
H       5.787040330    -0.576760360     0.113331060