33
0 1 def2QZVP
N       0.530638550     2.724306120     0.598766760
C       1.628248550     2.293181120    -0.114744240
C       1.321324550     1.141609120    -0.805395240
C      -0.058319450     0.854293120    -0.516380240
C      -0.937435450    -0.162335880    -0.918085240
C      -2.244534450    -0.147816880    -0.449089240
C      -2.691109450     0.867711120     0.427133760
C      -1.834033450     1.881981120     0.838640760
C      -0.523046450     1.867270120     0.360996760
H       0.482134550     3.574905120     1.128732760
H       2.556643550     2.840748120    -0.076343240
H      -0.628165450    -0.965414880    -1.572059240
H      -3.707035450     0.869587120     0.790515760
H      -2.185594450     2.654179120     1.510748760
O      -3.045514450    -1.164677880    -0.897535240
C      -4.337539450    -1.267034880    -0.324521240
H      -4.283674450    -1.375213880     0.760765760
H      -4.958190450    -0.403218880    -0.573810240
H      -4.782069450    -2.160348880    -0.752909240
C       2.276379550     0.320077120    -1.613389240
C       2.908881550    -0.830552880    -0.809651240
N       1.963456550    -1.845293880    -0.389493240
C       1.307343550    -1.958834880     0.809468760
C       1.742151550    -1.031811880     1.925861760
H       1.770566550    -0.096434880    -2.488543240
H       3.084778550     0.954268120    -1.987490240
H       3.678887550    -1.311780880    -1.417400240
H       3.403175550    -0.425715880     0.071468760
H       1.601239550    -2.468800880    -1.094264240
O       0.431207550    -2.797103880     0.965301760
H       2.800902550    -1.161914880     2.152896760
H       1.574522550     0.010274120     1.656436760
H       1.153779550    -1.280083880     2.803368760