33
0 1 def2QZVP
N       0.485637910     2.616082420    -0.194808940
C      -0.560439090     1.770971420    -0.494527940
C      -0.124019090     0.461941420    -0.469878940
C       1.268934910     0.510149420    -0.127927940
C       2.246257910    -0.494552580     0.044041060
C       3.532498910    -0.103400580     0.385184060
C       3.861455910     1.264716420     0.554672060
C       2.917827910     2.259253420     0.386002060
C       1.616425910     1.868542420     0.041229060
H       0.412275910     3.612252420    -0.098785940
H      -1.540106090     2.171090420    -0.698508940
H       1.983778910    -1.533450580    -0.088748940
H       4.880549910     1.507444420     0.821546060
H       3.184206910     3.299872420     0.518025060
O       4.580972910    -0.960914580     0.586441060
C       4.300114910    -2.341851580     0.435715060
H       3.541883910    -2.672639580     1.149080060
H       3.965714910    -2.570419580    -0.578815940
H       5.232970910    -2.860883580     0.633663060
C      -0.908704090    -0.781626580    -0.774360940
C      -2.417455090    -0.561918580    -0.828205940
N      -2.908200090    -0.138602580     0.473071060
C      -4.218748090    -0.039102580     0.854548060
C      -5.233899090    -0.655519580    -0.086974940
H      -0.588609090    -1.194591580    -1.735201940
H      -0.694233090    -1.542418580    -0.018521940
H      -2.650345090     0.174462420    -1.605783940
H      -2.901731090    -1.496066580    -1.110359940
H      -2.263746090     0.359938420     1.068229060
O      -4.542005090     0.496050420     1.905095060
H      -6.222928090    -0.486376580     0.325562060
H      -5.172500090    -0.211006580    -1.080552940
H      -5.063840090    -1.727425580    -0.190137940