33
0 1 def2QZVP
N       1.026745240     2.775635420    -0.031328700
C      -0.262185760     2.427831420    -0.375457700
C      -0.350177760     1.067896420    -0.567397700
C       0.967044240     0.542804420    -0.328130700
C       1.510173240    -0.749711580    -0.375698700
C       2.860034240    -0.924265580    -0.094879700
C       3.680904240     0.177897420     0.234640300
C       3.159477240     1.466413420     0.283928300
C       1.804248240     1.638942420     0.001427300
H       1.350697240     3.710786420     0.132530300
H      -1.027657760     3.181832420    -0.466605700
H       0.913286240    -1.615781580    -0.629924700
H       4.728030240     0.035691420     0.452036300
H       3.799015240     2.302861420     0.534694300
O       3.317088240    -2.215839580    -0.162011700
C       4.691278240    -2.427980580     0.113006300
H       4.947716240    -2.124112580     1.130253300
H       5.328411240    -1.894793580    -0.595946700
H       4.853627240    -3.496382580     0.006985300
C      -1.577616760     0.280792420    -0.901859700
C      -2.111339760    -0.484068580     0.320565300
N      -3.274206760    -1.303065580     0.031956300
C      -4.585086760    -0.909709580     0.055795300
C      -4.875654760     0.440276420     0.682967300
H      -1.361417760    -0.438073580    -1.696997700
H      -2.359465760     0.942710420    -1.280224700
H      -2.357140760     0.221934420     1.111658300
H      -1.326214760    -1.130230580     0.714911300
H      -3.129684760    -2.181035580    -0.442110700
O      -5.474718760    -1.628273580    -0.376528700
H      -5.942534760     0.619886420     0.601625300
H      -4.334104760     1.241921420     0.181602300
H      -4.588568760     0.447210420     1.734520300