33
0 1 def2QZVP
N       0.880622450     2.794783330     0.139674090
C       1.769016450     2.113340330    -0.660360910
C       1.189767450     0.950594330    -1.118101910
C      -0.131302550     0.914914330    -0.562369910
C      -1.196276550    -0.008593670    -0.666774910
C      -2.365305550     0.252431330     0.032432090
C      -2.495860550     1.414340330     0.833389090
C      -1.470784550     2.335484330     0.935401090
C      -0.287549550     2.076694330     0.229330090
H       1.083148450     3.644458330     0.633569090
H       2.763578450     2.495073330    -0.823479910
H      -1.093952550    -0.885533670    -1.289242910
H      -3.429372550     1.562355330     1.358208090
H      -1.586248550     3.221783330     1.545919090
O      -3.475656550    -0.552502670     0.026055090
C      -3.399626550    -1.719412670    -0.771994910
H      -3.235170550    -1.472833670    -1.823505910
H      -2.602801550    -2.384674670    -0.429266910
H      -4.356632550    -2.220941670    -0.664043910
C       1.864547450    -0.147414670    -1.880211910
C       2.619729450    -1.103310670    -0.936437910
N       1.789039450    -1.582025670     0.154820090
C       1.781511450    -0.949525670     1.373536090
C       0.621946450    -1.324124670     2.272760090
H       1.122376450    -0.710495670    -2.452788910
H       2.575904450     0.257061330    -2.604125910
H       3.011844450    -1.955192670    -1.495197910
H       3.454296450    -0.581610670    -0.473415910
H       0.959290450    -2.098280670    -0.082815910
O       2.638564450    -0.147448670     1.712373090
H      -0.180530550    -0.601434670     2.116335090
H       0.235793450    -2.320801670     2.062258090
H       0.946093450    -1.267155670     3.308076090