33
0 1 def2QZVP
N       0.525205550     2.518245030    -0.254578210
C       1.443650550     1.758082030    -0.945212210
C       0.877215550     0.557514030    -1.311867210
C      -0.467490450     0.577365030    -0.809708210
C      -1.527072450    -0.349664970    -0.843201210
C      -2.726610450    -0.005051970    -0.244992210
C      -2.902637450     1.244553030     0.390969790
C      -1.872698450     2.170349030     0.444298790
C      -0.656027450     1.820837030    -0.154491210
H       0.699768550     3.431929030     0.122595790
H       2.444264550     2.124043030    -1.108682210
H      -1.435922450    -1.309703970    -1.334761210
H      -3.867917450     1.475982030     0.820658790
H      -2.013226450     3.129388030     0.925950790
O      -3.790049450    -0.887732970    -0.312586210
C      -4.030884450    -1.550135970     0.925843790
H      -4.265645450    -0.837533970     1.719414790
H      -3.160808450    -2.140186970     1.224413790
H      -4.881338450    -2.208247970     0.768241790
C       1.566245550    -0.599987970    -1.959728210
C       2.165758550    -1.563107970    -0.916809210
N       3.220542550    -0.949619970    -0.131659210
C       3.074516550    -0.248603970     1.040901790
C       1.822768550    -0.513767970     1.850344790
H       2.369363550    -0.248472970    -2.612053210
H       0.865866550    -1.154488970    -2.589587210
H       2.575887550    -2.440787970    -1.420316210
H       1.384675550    -1.912143970    -0.244168210
H       4.054990550    -0.679585970    -0.631698210
O       3.950705550     0.512307030     1.429117790
H       1.686922550    -1.581200970     2.024798790
H       0.938260550    -0.137741970     1.336764790
H       1.931720550    -0.002824970     2.801783790