33
0 1 def2QZVP
N       0.562126270     2.481969000    -0.711393450
C       1.379671270     1.522918000    -1.265931450
C       0.738136270     0.302964000    -1.259568450
C      -0.545777730     0.525405000    -0.658908450
C      -1.629946730    -0.331139000    -0.363669450
C      -2.751300730     0.216014000     0.242558550
C      -2.812584730     1.595880000     0.560102550
C      -1.761111730     2.446947000     0.279955550
C      -0.623864730     1.898099000    -0.329132450
H       0.804905270     3.448528000    -0.591942450
H       2.369603270     1.777391000    -1.608045450
H      -1.575432730    -1.380187000    -0.614835450
H      -3.713393730     1.964208000     1.030818550
H      -1.821998730     3.498462000     0.528934550
O      -3.874711730    -0.488624000     0.585470550
C      -3.863259730    -1.873265000     0.284553550
H      -3.057447730    -2.387687000     0.813406550
H      -3.758169730    -2.045406000    -0.789065450
H      -4.820121730    -2.261160000     0.620417550
C       1.320184270    -1.017918000    -1.647687450
C       1.984622270    -1.721882000    -0.448532450
N       3.135967270    -0.997565000     0.056357550
C       3.135184270    -0.012388000     1.014574550
C       1.962212270     0.017519000     1.971080550
H       2.067831270    -0.889116000    -2.434241450
H       0.543544270    -1.671678000    -2.053768450
H       2.308226270    -2.722610000    -0.742188450
H       1.262568270    -1.838705000     0.357431550
H       3.924486270    -0.914692000    -0.568688450
O       4.075101270     0.764920000     1.113219550
H       1.799885270    -0.960238000     2.424868550
H       1.046746270     0.310251000     1.457444550
H       2.188120270     0.742785000     2.746404550