17
0 1 def2QZVP
B       0.000000000     0.000000000     2.089753594
P       0.000000000     0.000000000     0.006736575
C       0.847764634    -1.468371418    -0.689514835
C       0.847764634     1.468371418    -0.689514835
C      -1.695529267     0.000000000    -0.689514835
F      -0.667795378     1.156655523     2.446986150
F       1.335590755     0.000000000     2.446986150
F      -0.667795378    -1.156655523     2.446986150
H      -2.221462309    -0.886786187    -0.335114397
H      -2.221462309     0.886786187    -0.335114397
H      -1.678872804     0.000000000    -1.786072577
H       0.342751789     2.367235887    -0.335114397
H       1.878710520     1.480449700    -0.335114397
H       0.839436402     1.453946498    -1.786072577
H       0.839436402    -1.453946498    -1.786072577
H       1.878710520    -1.480449700    -0.335114397
H       0.342751789    -2.367235887    -0.335114397