6
0 1 def2QZVP
N       0.000000000     0.000000000     0.702072031
B       0.000000000     0.000000000    -0.682841618
H      -0.840593152     0.000000000     1.252988941
H       0.840593152     0.000000000     1.252988941
H      -1.046344875     0.000000000    -1.262604148
H       1.046344875     0.000000000    -1.262604148