10
0 1 def2QZVP
P      -1.214208719    -0.008114503     0.012874939
B       1.496077302     0.003861464    -0.013316416
H      -2.573658114     0.163898980    -0.421937058
H      -0.677394111     1.109093888    -0.623566452
H      -1.042595434    -1.287873787    -0.511201384
H      -1.496935803     0.090562344     1.378988278
H       1.575323633     1.206282077     0.095820444
H       2.284468328    -0.655512090     0.613306634
H       1.279707504    -0.371207927    -1.146503891
H       0.369215417    -0.250990447     0.615534907