13
0 1 def2QZVP
C       0.044845100    -1.131821200     0.000000000
C       1.258719900    -0.447567000     0.000000000
C       1.267661600     0.938563300     0.000000000
C       0.078310100     1.657931500     0.000000000
C      -1.127099800     0.969456700     0.000000000
C      -1.150946400    -0.418622800     0.000000000
O       0.089423000    -2.478167400     0.000000000
H       2.189371300    -1.003828900     0.000000000
H       2.216975200     1.461356500     0.000000000
H       0.091862000     2.740820000     0.000000000
H      -2.063947500     1.514092400     0.000000000
H      -2.100952900    -0.944032800     0.000000000
H      -0.794221700    -2.858180300     0.000000000