19
1 1 def2QZVP
C      -4.490717311    -0.284696517     0.000000000
C      -3.340998228     0.422129176     0.000000000
C      -2.072817079    -0.220998628     0.000000000
C      -0.861321708     0.439931705     0.000000000
C       0.344223799    -0.257443417     0.000000000
C       1.615336900     0.343500818     0.000000000
C       2.754643449    -0.407915886     0.000000000
C       4.128093959     0.123932370     0.000000000
H      -4.491240751    -1.369260751     0.000000000
H      -5.455984199     0.205821734     0.000000000
H      -3.368954632     1.506743411     0.000000000
H      -2.067161449    -1.308823632     0.000000000
H      -0.845304401     1.525132328     0.000000000
H       0.302154252    -1.344558279     0.000000000
H       1.684172179     1.426819271     0.000000000
H       2.651513957    -1.491501466     0.000000000
H       4.165862152     1.211919745     0.000000000
H       4.674249555    -0.260365991     0.870472665
H       4.674249555    -0.260365991    -0.870472665