13
0 1 def2QZVP
O       2.597986100     1.377042200     0.000000000
N       0.332498100     1.306213300     0.000000000
N      -1.938152700     1.179113300     0.000000000
N       1.614520300    -0.653505400     0.000000000
C      -0.758283400     0.560602800     0.000000000
C      -0.716011600    -0.870511900     0.000000000
C       1.555029300     0.734666800     0.000000000
C       0.511498200    -1.428607500     0.000000000
H      -1.611775100    -1.474532500     0.000000000
H       0.672763100    -2.498019900     0.000000000
H      -2.804213100     0.668352100     0.000000000
H      -1.983531600     2.184707000     0.000000000
H       2.527672400    -1.085520300     0.000000000