16
1 1 def2QZVP
N      -0.505120800     1.849892400     0.000000000
N       1.487468500     0.709619300     0.000000000
C      -0.547998700    -0.523456000     0.000000000
C       0.857521200    -0.469547300     0.000000000
C      -1.174119000     0.684466000     0.000000000
C       0.859854300     1.949981200     0.000000000
C      -1.272589400    -1.831531100     0.000000000
O       1.518460700    -1.577533000     0.000000000
O       1.471713900     2.983735100     0.000000000
H      -1.026720200     2.718735300     0.000000000
H       2.504440600     0.741712500     0.000000000
H      -2.252706700     0.767581500     0.000000000
H      -1.027775500    -2.424106500    -0.882045500
H      -1.027775500    -2.424106500     0.882045500
H      -2.348098800    -1.663934000     0.000000000
H       2.483445400    -1.491508900     0.000000000