6
1 1 def2QZVP
SI      0.547683227     0.096887290     0.000000000
H      -1.200135492    -0.621431231     0.000000000
H       0.355376134     1.551877017     0.000000000
H       0.816514886    -0.585989575     1.268312442
H       0.816514886    -0.585989575    -1.268312442
H      -1.335953641     0.144646074     0.000000000