15
0 1 def2QZVP
N      -0.331092500     1.757157000     0.000000000
N       1.652626300     0.616145200     0.000000000
C      -0.397052100    -0.620224200     0.000000000
C       1.054046600    -0.632276800     0.000000000
C      -1.012074400     0.575496000     0.000000000
C       1.030201900     1.837849100     0.000000000
C      -1.130732900    -1.920758700     0.000000000
O       1.738481400    -1.638362500     0.000000000
O       1.638334000     2.888589400     0.000000000
H      -0.844956100     2.626656900     0.000000000
H       2.666288800     0.635506400     0.000000000
H      -2.090002300     0.670790800     0.000000000
H      -0.882915000    -2.519178100    -0.878556200
H      -0.882915000    -2.519178100     0.878556200
H      -2.208238600    -1.758212400     0.000000000