18
0 1 def2QZVP
C      -4.297731476    -0.204670640     0.000000000
C      -3.104805104     0.404086428     0.000000000
C      -1.833344534    -0.281886995     0.000000000
C      -0.634096406     0.338972128     0.000000000
C       0.634096406    -0.338972128     0.000000000
C       1.833344534     0.281886995     0.000000000
C       3.104805104    -0.404086428     0.000000000
C       4.297731476     0.204670640     0.000000000
H      -4.383032388    -1.285995375     0.000000000
H      -5.221755825     0.358957957     0.000000000
H      -3.067341874     1.491120765     0.000000000
H      -1.863266117    -1.369555932     0.000000000
H      -0.608827930     1.426916758     0.000000000
H       0.608827930    -1.426916758     0.000000000
H       1.863266117     1.369555932     0.000000000
H       3.067341874    -1.491120765     0.000000000
H       4.383032388     1.285995375     0.000000000
H       5.221755825    -0.358957957     0.000000000