8
0 1 def2QZVP
SI      0.000000000     0.000000000     1.160905400
SI      0.000000000     0.000000000    -1.160905400
H       1.197029000     0.691105000     1.677962000
H       0.000000000    -1.382210100     1.677962000
H      -1.197029000     0.691105000     1.677962000
H       1.197029000    -0.691105000    -1.677962000
H       0.000000000     1.382210100    -1.677962000
H      -1.197029000    -0.691105000    -1.677962000