14
1 1 def2QZVP
O       2.583040100     1.243229800     0.000000000
N       0.319320100     1.094726200     0.000000000
N      -1.974812500     1.021554300     0.000000000
N       1.611764300    -0.813294300     0.000000000
C      -0.830893400     0.388351900     0.000000000
C      -0.738540600    -1.025539000     0.000000000
C       1.594001800     0.556372400     0.000000000
C       0.496081300    -1.571639300     0.000000000
H      -1.625897000    -1.639770700     0.000000000
H       0.651071500    -2.641192800     0.000000000
H      -2.843511100     0.508608900     0.000000000
H      -2.042936200     2.029032000     0.000000000
H       2.520362800    -1.259509700     0.000000000
H       0.280949000     2.109070400     0.000000000