14
1 1 def2QZVP
C       0.062361200    -1.264548800     0.000000000
C       1.300998300    -0.563041100     0.000000000
C       1.289602000     0.782926900     0.000000000
C       0.042265300     1.555359100     0.000000000
C      -1.193643300     0.765710600     0.000000000
C      -1.185844700    -0.581371400     0.000000000
O       0.135498400    -2.551520100     0.000000000
H       2.224769100    -1.127612500     0.000000000
H       2.223316200     1.332032600     0.000000000
H       0.036122100     2.247493300    -0.855712700
H      -2.135738200     1.300330400     0.000000000
H      -2.108382200    -1.150626600     0.000000000
H      -0.727446500    -2.992625800     0.000000000
H       0.036122100     2.247493300     0.855712700