10
0 1 def2QZVP
C       0.610020182    -0.395915529     0.000000000
C       1.842759355     0.118267326     0.000000000
C      -0.610020182     0.395915529     0.000000000
C      -1.842759355    -0.118267326     0.000000000
H       0.483392044    -1.476093778     0.000000000
H       2.010352542     1.190089668     0.000000000
H       2.721807787    -0.513631151     0.000000000
H      -0.483392044     1.476093778     0.000000000
H      -2.010352542    -1.190089668     0.000000000
H      -2.721807787     0.513631151     0.000000000