15
0 1 def2QZVP
N      -1.947942400     0.557683700     0.000000000
N      -0.043732700     2.000805100     0.000000000
N       1.217450800    -1.326345600     0.000000000
N       2.035912900     0.741358000     0.000000000
N      -1.813541600    -1.743864600     0.000000000
C       2.294684500    -0.595169700     0.000000000
C       0.683770500     0.882778500     0.000000000
C      -1.206860300    -0.556082900     0.000000000
C      -1.339081600     1.741567500     0.000000000
C       0.193120200    -0.414884200     0.000000000
H       2.722458900     1.481518900     0.000000000
H      -2.817982500    -1.801615500     0.000000000
H      -1.286132400    -2.599908900     0.000000000
H      -1.999442700     2.603949600     0.000000000
H       3.307318300    -0.971789900     0.000000000