16
1 1 def2QZVP
N      -1.920087600     0.575576300     0.221671300
N      -0.040422300     2.019005500     0.046934100
N       1.231434000    -1.289247200    -0.238885000
N       1.978653000     0.764825400     0.227416700
N      -1.741350100    -1.701222600     0.144180400
C       2.234258700    -0.606198300     0.154620200
C       0.708482600     0.960144600    -0.123878200
C      -1.204758600    -0.513415200    -0.002728500
C      -1.354997700     1.777302200     0.111230200
C       0.176296500    -0.356153300    -0.561194700
H       2.609805800     1.469838400     0.582880800
H      -2.705571300    -1.773344300     0.433943700
H      -1.203431100    -2.542630900     0.008611800
H      -2.008523500     2.638646300     0.215621200
H       3.194585200    -1.012753700     0.434074700
H       0.045626400    -0.410373100    -1.654498600