10
0 1 def2QZVP
N       0.506021500    -1.598655100     0.000000000
H       1.108914800    -1.530206800     0.809839400
C      -0.464253600    -0.537583800     0.000000000
C       0.095748400     0.869951400     0.000000000
H      -1.120802300    -0.636703700    -0.870435700
H      -1.120802300    -0.636703700     0.870435700
O       1.266143300     1.149314300     0.000000000
O      -0.871953200     1.777256900     0.000000000
H      -0.507931500     2.673537300     0.000000000
H       1.108914800    -1.530206800    -0.809839400