14
1 1 def2QZVP
O      -1.977166500     0.237868700    -1.239057500
P      -1.495138800    -0.270894900     0.456607400
O      -2.533965300    -1.211241800     0.773222700
O      -0.053555700    -0.821744700     0.127009100
P       1.390841400    -0.052027700     0.271593600
O       1.192866400     1.178956500     1.048098600
O       2.368302800    -1.130366100     0.816784400
O       1.700943400     0.052931500    -1.258885000
O      -1.358045900     1.106336200     1.110479200
H      -2.646602800    -0.334658200    -1.658297700
H       2.603538300    -1.115958800     1.755058300
H       2.580344200     0.333086300    -1.548034600
H      -0.411973000     1.430530000     1.246883700
H      -1.360388500     0.597182900    -1.901462300