27
1 1 def2QZVP
C      -2.831735900    -1.039574600    -0.077261100
C      -1.458911500    -0.794249800     0.584782600
C      -0.311869100    -0.633221300    -0.402139100
C       1.068353400    -0.354044600     0.230080500
C       1.175916800     1.166792600     0.049926900
O       0.403665900     1.739963200     1.115011600
C       0.501752700     1.346304000    -1.296267200
O      -3.437082800     0.214605900    -0.316264300
O       2.010978600    -1.025754900    -0.529649700
O      -1.681373500     0.441413600     1.343571800
O      -0.599358900     0.452653700    -1.256281700
C       3.293977300    -1.129311900     0.050089900
H      -2.720532900    -1.635644500    -0.985945000
H      -3.483541300    -1.587642100     0.604570700
H      -1.230229800    -1.581914600     1.305689900
H      -0.246889100    -1.575579800    -0.963413700
H       1.120205700    -0.641391800     1.293612000
H       2.199948600     1.544592200     0.090564700
H      -0.858786500     1.088198000     1.321079500
H       0.130214700     2.357015800    -1.480974600
H       1.198788900     1.087929000    -2.100537800
H      -3.227076800     0.532154300    -1.200922300
H      -2.466990000     0.846265500     0.856873500
H       3.791220800    -0.158681300     0.153455600
H       3.252731400    -1.605557600     1.035944100
H       3.894439100    -1.749638500    -0.610798100
H       0.512184300     2.694319400     1.185201300