27
1 1 def2QZVP
C      -2.772067600    -0.855191100    -0.070616000
C      -1.416975600    -0.890042800     0.636311900
C      -0.273443800    -0.658614500    -0.347996100
C       1.093704800    -0.262122800     0.222324900
C       1.154262900     1.277924300     0.062761900
O       0.588841600     1.998659600     1.102468800
C       0.435999100     1.488362300    -1.258955200
O      -2.954101200     0.422419400    -0.694167400
O       2.033935400    -0.895241100    -0.581833400
O      -1.378942900     0.088665800     1.648975800
O      -0.614617100     0.456557400    -1.258701200
C       3.340801600    -0.953772700    -0.050904400
H      -2.825900100    -1.610965900    -0.857841600
H      -3.585161200    -1.055677400     0.631329500
H      -1.261568000    -1.898664300     1.041785400
H      -0.170838100    -1.541094900    -0.983592100
H       1.192747900    -0.551479300     1.280015000
H       2.194282800     1.602591900    -0.040223400
H      -0.128950100     1.512296300     1.522166900
H      -0.045663300     2.460387400    -1.354559200
H       1.060137100     1.285198500    -2.127493500
H      -1.615693700     0.722587600    -1.123988600
H      -3.391915000     1.045529200    -0.104047500
H       3.794029300     0.036234300     0.066133300
H       3.356723100    -1.459491100     0.921014100
H       3.945210700    -1.525306700    -0.751156800
H      -1.754838700    -0.239749500     2.470788800