21
1 1 def2QZVP
N       2.629397300     0.792328000     0.783874400
C       1.462587500     0.272541900     0.102961000
C       1.479400800     0.816481800    -1.339280300
O       0.523734700     0.775007300    -2.084756900
H       3.040910000     0.137496400     1.433221300
O       2.613550700     1.306544500    -1.722097000
H       2.455438600     1.663513400     1.269993000
H       1.593476100    -0.812673400     0.007000700
C       0.133146700     0.547880900     0.838621000
C      -1.043946700    -0.262955200     0.406875700
H      -0.116099000     1.612453700     0.765567700
H       0.294116300     0.343831000     1.899294800
C      -1.943286100    -0.979174100     1.130795500
N      -1.437143600    -0.367498600    -0.901687300
H      -2.016203300    -1.156957400     2.190952100
H      -3.644224600    -2.067480500     0.467708800
C      -2.519688500    -1.109399400    -0.992142800
N      -2.848608200    -1.489675700     0.235554100
H      -3.043283100    -1.367262500    -1.898816900
H       3.222143000     1.269747400    -0.949506800
H      -0.835418700     0.075250400    -1.644132200