14
1 1 def2QZVP
O      -2.565089800    -0.156692100    -0.904219800
P      -1.512293700    -0.006903700     0.225597100
O      -1.232560500    -1.031798200     1.209122700
O      -0.026789400    -0.009798500    -0.754699700
P       1.502433400    -0.054198100     0.181406600
O       1.321720100     0.906590500     1.249153400
O       1.634467800    -1.575439300     0.419291500
O       2.460881000     0.192352500    -1.019484000
O      -1.666080700     1.493707600     0.572853900
H      -2.939588600    -1.034644600    -1.070259700
H       1.143828700    -1.959119600     1.164076500
H       3.052192500     0.958948200    -0.976873300
H      -1.156075700     1.835099900     1.324891600
H      -0.017045300     0.441895400    -1.620856900