16
1 1 def2QZVP
N      -0.424460600     1.904040900     0.000000000
N       1.572776100     0.748480900     0.000000000
C      -0.472920300    -0.472949900     0.000000000
C       0.933906600    -0.423425700     0.000000000
C      -1.093433600     0.743095000     0.000000000
C       0.959394300     2.007839600     0.000000000
C      -1.210441000    -1.777677600     0.000000000
O       1.713193500    -1.456724000     0.000000000
O       1.563876100     3.028013200     0.000000000
H      -0.928321600     2.783934100     0.000000000
H       2.590988600     0.758732600     0.000000000
H      -2.174232100     0.820291800     0.000000000
H      -0.994252900    -2.375338600    -0.888740000
H      -0.994252900    -2.375338600     0.888740000
H      -2.286480400    -1.610691400     0.000000000
H       1.244660100    -2.302282200     0.000000000