16
1 1 def2QZVP
N      -2.004616300     0.686104100     0.000000000
N      -0.096813000     2.103879000     0.000000000
N       1.203470700    -1.141114700     0.000000000
N       1.975097200     0.874049200     0.000000000
N      -1.964151000    -1.597884200     0.000000000
C       2.302531400    -0.409056900     0.000000000
C       0.598560100     0.992475800     0.000000000
C      -1.303557000    -0.441209600     0.000000000
C      -1.401646200     1.865601200     0.000000000
C       0.102479400    -0.299512000     0.000000000
H       2.623900700     1.652330500     0.000000000
H      -2.972044900    -1.566032900     0.000000000
H      -1.527156900    -2.501198200     0.000000000
H      -2.052359000     2.732076700     0.000000000
H       3.308719100    -0.798778500     0.000000000
H       1.207585500    -2.151729400     0.000000000