27
1 1 def2QZVP
N       2.832559200     0.094282200     1.612711000
C       1.737118200    -0.034239300     0.695252300
C       1.842891700    -1.149170500    -0.339086300
O       3.074742600    -1.483616700    -0.640743800
H       3.704978400     0.319009900     1.154617000
O       0.877991600    -1.672516300    -0.860146700
H       2.975380600    -0.731819500     2.175805800
H       0.841733900    -0.260473400     1.285512200
C       1.529809700     1.320702500    -0.007822300
H       2.453493200     1.578220800    -0.536380800
H       1.432703800     2.054754300     0.795976200
C       0.371070400     1.483728900    -0.990912300
H       0.503473900     0.871792300    -1.888026700
H       0.408308400     2.515532400    -1.347496100
C      -1.032352900     1.266604200    -0.432584700
H      -1.118605900     1.753122000     0.546228000
H      -1.750192700     1.742405200    -1.108793100
N      -2.646217700    -1.972370700     0.143955400
H      -3.519998500    -2.396201600     0.401968100
H      -1.913096700    -2.591130100    -0.161772600
H      -0.589987400    -0.809499900    -0.581264200
N      -1.340490200    -0.151668300    -0.322974600
C      -2.488258700    -0.648349500     0.085514700
N      -3.493675500     0.146094600     0.449837100
H      -4.373423100    -0.222100800     0.768123500
H      -3.408731900     1.147429500     0.424422400
H       3.088775500    -2.170522500    -1.321919500