12
1 1 def2QZVP
O      -1.972745000     1.006195200    -0.478264000
S      -1.454950700    -0.338168600     0.114838100
O      -1.045989100    -0.084613900     1.451421500
O      -2.141313700    -1.474594400    -0.389608700
O       0.105988700    -0.389031900    -0.710627600
S       1.853250600    -0.092461100     0.185794400
O       1.465827900     1.308773600     0.703550000
O       1.854074300    -1.108415100     1.169847700
O       2.631765200     0.018849900    -0.986707100
H      -2.549829100     0.907352800    -1.258169400
H       1.105594800     1.313196600     1.614398700
H       0.148326100    -1.067083000    -1.416473600