9
1 1 def2QZVP
C      -0.296888000    -0.716299300    -0.328311800
H       0.316617900    -1.479567900    -0.809354400
F      -0.293450300    -1.049719100     1.097246000
F      -1.543100000    -0.725253300    -0.713641800
C       0.296888000     0.716299300    -0.328311800
H      -0.316617900     1.479567900    -0.809354400
F       0.293450300     1.049719100     1.097246000
F       1.543100000     0.725253300    -0.713641800
H       0.000000000     0.000000000     1.508123900