9
1 1 def2QZVP
S      -1.106142900     0.585294000     1.587774700
O      -1.629714000     0.010128600     0.000000000
S      -1.106142900     0.585294000    -1.587774700
O       0.217855700    -0.283802500    -1.848549000
S       1.749069900     0.334395900    -1.433543200
O       2.020253500    -0.439077100     0.000000000
S       1.749069900     0.334395900     1.433543200
O       0.217855700    -0.283802500     1.848549000
H      -2.112104800    -0.842826200     0.000000000