43
0 1 def2QZVP
H       2.256606230     2.823006230    -2.892913870
C       2.993530940     2.671409390    -2.100945930
H       3.225363780     3.652941930    -1.674686750
H       3.907543320     2.252733900    -2.528746530
C       2.377679490     1.800680590    -1.020760870
O       1.204649890     1.928513800    -0.674599200
N       3.201992570     0.849960520    -0.478977960
H       4.182218010     0.915252070    -0.714478220
C       2.888288270     0.162203110     0.785167630
H       3.637518520    -0.633618340     0.882394610
C       2.963328370     1.085028360     2.002418290
H       2.233799900     1.891366570     1.910319410
H       2.733674950     0.526323660     2.911076860
H       3.966018510     1.513175930     2.089966260
C       1.514588050    -0.541641940     0.700232630
O       0.692129800    -0.458483190     1.604753480
N       1.313014270    -1.275638720    -0.426914700
H       2.096820590    -1.406680480    -1.048672230
C       0.141034710    -2.131361550    -0.619464010
H       0.199249470    -2.491462630    -1.652991830
C       0.144462960    -3.349248700     0.299943240
H       0.145930180    -3.017606440     1.344877080
H      -0.776012120    -3.916355040     0.123982070
O       1.314543000    -4.101359250    -0.029051080
H       1.335716020    -4.873798130     0.548333550
C      -1.179918240    -1.336235490    -0.485491100
O      -2.150587990    -1.817262080     0.083204420
N      -1.203762460    -0.160784980    -1.178016520
H      -0.307561110     0.250449730    -1.408179340
C      -2.361712930     0.744543400    -1.163994250
H      -2.019555430     1.648461940    -1.681998500
C      -3.561091510     0.161940970    -1.910819880
H      -3.902863280    -0.749982990    -1.419811270
H      -4.383012300     0.879902690    -1.905505150
H      -3.282258680    -0.064402790    -2.944919240
C      -2.762156140     1.200001670     0.266235970
O      -3.936882700     1.279770620     0.603400510
N      -1.720730270     1.617470790     1.039060180
H      -0.780650390     1.395595630     0.738377090
C      -1.902427330     1.979543450     2.431773470
H      -1.449344020     1.233336580     3.094026980
H      -1.454993740     2.957556220     2.642463980
H      -2.974370950     2.028895890     2.624628030