39
0 1 def2QZVP
H      -2.352294660     1.817895600     3.148586650
C      -3.106206470     1.721658140     2.364533010
H      -3.395334650     2.732477600     2.061597250
H      -3.985785650     1.210749500     2.764260640
C      -2.485334400     1.015445650     1.172989130
O      -1.336116910     1.251946030     0.805876980
N      -3.272913230     0.080424070     0.553836630
H      -4.243884150     0.055888480     0.830951410
C      -2.976614450    -0.439840950    -0.793610490
H      -3.682211610    -1.265391390    -0.949314940
C      -3.168497560     0.608297770    -1.889767270
H      -2.489780550     1.449193770    -1.734102230
H      -2.944854890     0.172336940    -2.865160770
H      -4.199658700     0.974058400    -1.889399590
C      -1.562072480    -1.062768440    -0.857645700
O      -0.814612360    -0.870904950    -1.804792620
N      -1.260136750    -1.910439940     0.164706250
H      -1.899442310    -1.962940780     0.943875400
C       0.025045920    -2.593292510     0.241498240
H       0.033595850    -3.195118550     1.154051530
H       0.155143260    -3.257650510    -0.616209980
C       1.262420180    -1.669937550     0.240661960
O       2.262824510    -1.988987060    -0.381434860
N       1.191512530    -0.605402320     1.095128160
H       0.264317050    -0.294009290     1.353754550
C       2.261950470     0.399371480     1.186053080
H       1.856125570     1.187040240     1.833445160
C       3.532594040    -0.164346280     1.821326450
H       3.945242880    -0.956293500     1.196674530
H       4.280325750     0.625293670     1.910179680
H       3.307228840    -0.563529710     2.815209400
C       2.569841380     1.080582380    -0.175132080
O       3.720906970     1.307513240    -0.529955670
N       1.468352410     1.497603810    -0.859749800
H       0.558912620     1.188770400    -0.546854860
C       1.564087050     2.052601240    -2.197237190
H       1.123294300     1.373866730    -2.935216750
H       1.054097030     3.021054910    -2.257208730
H       2.621663390     2.193651120    -2.422924580