43
0 1 def2QZVP
H      -1.710273130    -2.524007530     3.114406470
C      -2.319685310    -2.827711320     2.261804260
H      -3.373842860    -2.641294780     2.483232600
H      -2.174457810    -3.904315050     2.123376550
C      -1.822005970    -2.106629040     1.022299260
O      -0.623209800    -2.002468890     0.767042650
N      -2.782353630    -1.559933140     0.217193980
H      -3.746514160    -1.794766570     0.412488580
C      -2.479365230    -1.083915940    -1.136348950
H      -2.060611010    -1.902995900    -1.731274260
C      -3.752492490    -0.559801940    -1.806171390
H      -4.190004290     0.273670360    -1.246217550
H      -3.519818860    -0.209377760    -2.814107520
H      -4.503116930    -1.353355290    -1.890583660
C      -1.365939300    -0.018438890    -1.137857060
O      -0.454216070    -0.069084110    -1.952859850
N      -1.492359470     0.977435840    -0.219984620
H      -2.353553160     1.052291620     0.305457160
C      -0.592667970     2.125728360    -0.190835710
H      -0.650266170     2.692986240    -1.124350790
C      -0.973738580     3.033774850     0.974056200
H      -0.971214240     2.455761950     1.911210460
H      -0.211140450     3.819293960     1.055458830
O      -2.259641050     3.578659980     0.691365950
H      -2.491011830     4.188802300     1.402442350
C       0.889537160     1.705037450    -0.046137030
O       1.767500230     2.306736770    -0.642761120
N       1.128097770     0.772514830     0.927167960
H       0.353834870     0.159371230     1.162185580
C       2.471350310     0.224977670     1.135113050
H       3.140580030     1.061869610     1.345500290
C       2.453689060    -0.746051710     2.318846440
H       1.766367050    -1.578056350     2.132413190
H       3.455896940    -1.153424200     2.474307440
H       2.143839390    -0.231262700     3.234739410
C       3.100040860    -0.442605200    -0.111530090
O       4.290079260    -0.280486640    -0.356337470
N       2.289926650    -1.305844200    -0.785853180
H       1.296176050    -1.275398630    -0.604453920
C       2.714724330    -1.940498060    -2.021215190
H       3.785183690    -1.764906570    -2.133487660
H       2.528087860    -3.019910880    -1.986283990
H       2.185027550    -1.518493530    -2.882271410