37
0 1 def2QZVP
O       2.590324520    -2.726351560     1.139621710
C       2.900324540    -1.797351490     0.429621650
O       2.826324540    -1.864351490    -0.903378450
H       3.105324560    -0.995351430    -1.282378480
C       3.401324580    -0.468351390     0.983621700
H       4.412324660    -0.290351370     0.611621670
H       3.423324580    -0.544351390     2.065621780
N       2.562324520     0.656648700     0.613621670
H       1.891324470     1.056648730     1.268621720
C       2.576324520     1.168648740    -0.626378430
O       3.246324570     0.692648700    -1.552378500
C       1.700324450     2.397648830    -0.817378440
H       1.902324470     2.787648860    -1.809378520
H       1.959324470     3.146648890    -0.067378380
N       0.287324350     2.094648810    -0.712378430
H      -0.333675700     2.145648810    -1.508378490
C      -0.325675700     1.936648800     0.471621660
O       0.270324340     1.910648790     1.554621740
C      -1.845675820     1.820648790     0.396621650
N      -2.298675850     1.804648790    -0.993378450
H      -3.203675920     2.247648820    -1.074378460
H      -2.414675860     0.841648710    -1.298378480
H      -2.210675840     2.736648860     0.865621690
C      -2.319675850     0.624648700     1.245621720
H      -1.823675810     0.681648700     2.213621790
H      -3.394675930     0.727648700     1.405621730
C      -2.032675830    -0.682351400     0.563621660
C      -3.008675900    -1.283351450    -0.240378400
H      -3.992675980    -0.834351410    -0.302378400
C      -2.739675880    -2.462351540    -0.933378450
H      -3.508675940    -2.915351570    -1.544378500
C      -1.485675790    -3.057351580    -0.828378440
H      -1.273675770    -3.975351650    -1.359378480
C      -0.505675710    -2.478351540    -0.022378380
H       0.462324360    -2.948351580     0.082621630
C      -0.778675730    -1.296351450     0.662621670
H      -0.020675680    -0.859351420     1.301621720