37
0 1 def2QZVP
O       3.169432670    -1.409216320     0.246432450
C       4.200432750    -0.980216290    -0.215567580
O       5.361432840    -1.669216340    -0.219567580
H       5.169432820    -2.513216410     0.215432450
C       4.377432760     0.370783810    -0.878567630
H       4.671432790     0.209783800    -1.914567710
H       5.188432830     0.890783850    -0.374567600
N       3.181432670     1.159783870    -0.807567630
H       2.380432610     0.860783850    -1.357567670
C       2.868432650     1.729783920     0.393432460
O       3.669432710     1.879783930     1.305432530
C       1.400432540     2.112783940     0.511432470
H       1.039432510     2.568783980    -0.408567600
H       1.284432530     2.802784000     1.341432530
N       0.617432480     0.918783850     0.766432490
H       0.517432470     0.542783820     1.700432560
C       0.312432460     0.057783790    -0.218567580
O       0.532432470     0.274783800    -1.415567680
C      -0.310567590    -1.253216310     0.250432450
N      -0.627567620    -1.201216310     1.675432560
H      -0.607567610    -2.131216380     2.071432590
H      -1.569567690    -0.845216280     1.802432570
H       0.488432470    -1.985216370     0.112432440
C      -1.488567680    -1.624216340    -0.668567620
H      -1.140567650    -1.570216340    -1.699567700
H      -1.779567700    -2.654216420    -0.456567600
C      -2.658567770    -0.709216270    -0.452567600
C      -3.696567850    -1.069216300     0.413432460
H      -3.682567850    -2.049216370     0.876432500
C      -4.754567930    -0.198216230     0.669432480
H      -5.550567990    -0.498216250     1.338432530
C      -4.787567930     1.052783860     0.059432440
H      -5.607567990     1.730783920     0.252432450
C      -3.762567850     1.421783890    -0.811567630
H      -3.787567860     2.387783970    -1.296567670
C      -2.706567770     0.550783830    -1.064567650
H      -1.911567710     0.836783850    -1.741567700