43
0 1 def2QZVP
H       7.062977250    -1.636983970     0.550585540
C       6.839749230    -0.854951550    -0.179099640
H       6.639523400    -1.316420630    -1.150385690
H       7.727688600    -0.222412360    -0.262454660
C       5.688394840    -0.011112110     0.348230290
O       5.739477390     0.547268880     1.440282400
N       4.607141790     0.084456530    -0.478153050
H       4.562343850    -0.419287560    -1.353354460
C       3.405690970     0.814985330    -0.109167820
H       3.410727590     0.893340060     0.982395350
C       3.370455040     2.225269400    -0.722273870
H       3.380451870     2.163878390    -1.814281270
H       2.468271180     2.763866520    -0.412822260
H       4.243496700     2.789777330    -0.386992000
C       2.211224140    -0.010317330    -0.603171040
O       2.213098220    -0.508490430    -1.727805180
N       1.185622230    -0.152446600     0.275640020
H       1.201468990     0.303948310     1.179017390
C      -0.070683010    -0.792554680    -0.076952570
H      -0.154540740    -0.791692100    -1.166781540
C      -0.105207160    -2.246352590     0.412431700
H       0.734146810    -2.783128580    -0.051755920
H       0.032637750    -2.255308440     1.503141280
O      -1.364443300    -2.782055630     0.030616010
H      -1.399940240    -3.704206800     0.310589510
C      -1.191380310     0.023069360     0.583846830
O      -1.058282970     0.421677760     1.742886170
N      -2.265945190     0.298844980    -0.187411670
H      -2.374770860    -0.132482350    -1.096822430
C      -3.434676950     1.000411830     0.327050710
H      -3.413050820     0.894643110     1.416459480
C      -3.413435090     2.491774740    -0.044035830
H      -3.421025770     2.607574090    -1.130734450
H      -4.287117600     3.007496700     0.367775190
H      -2.511236940     2.957675470     0.360212720
C      -4.667457570     0.317742040    -0.282822110
O      -4.695485770     0.042149680    -1.479069740
N      -5.686392260     0.063217370     0.579351460
H      -5.557660600     0.286874190     1.555109870
C      -6.938998050    -0.542382690     0.156984170
H      -7.101369880    -1.501479930     0.661489770
H      -7.787455430     0.116994960     0.366538330
H      -6.872136960    -0.711530690    -0.917023530