39
0 1 def2QZVP
H       1.986271510    -3.306157860    -1.718022610
C       2.693862930    -3.013766630    -0.937953830
H       3.686719150    -2.888548220    -1.377238550
H       2.730123270    -3.829590440    -0.209490650
C       2.173353190    -1.768115090    -0.246853310
O       0.995392100    -1.657351700     0.092285300
N       3.082272570    -0.767310960    -0.040951860
H       4.053678950    -0.976946080    -0.226555480
C       2.812455080     0.368227680     0.850346450
H       2.593553520    -0.000701970     1.858665350
C       4.029062470     1.296291990     0.895548400
H       4.263599460     1.696743320    -0.095510230
H       3.823606910     2.135375830     1.564519320
H       4.909285670     0.768178960     1.278689370
C       1.541114480     1.142338020     0.451949720
O       0.756466290     1.533461210     1.303081080
N       1.422320710     1.446727650    -0.869563330
H       2.062799730     1.012560780    -1.517982120
C       0.273267900     2.184893630    -1.380755780
H       0.234530560     3.181232600    -0.934930850
H       0.392344180     2.289332880    -2.462653730
C      -1.100439870     1.545507790    -1.089665040
O      -2.056783150     2.244556600    -0.800171120
N      -1.191151110     0.204898890    -1.354032670
H      -0.327430480    -0.324498380    -1.314193290
C      -2.410477980    -0.539352270    -1.021468400
H      -3.240289140    -0.060973310    -1.544841940
C      -2.270047200    -1.993446850    -1.477057990
H      -1.428143600    -2.481775350    -0.976130510
H      -3.182891120    -2.544167470    -1.232339340
H      -2.115029610    -2.044687700    -2.559338000
C      -2.823190500    -0.464817930     0.468610050
O      -4.004396690    -0.338646590     0.772350490
N      -1.821056470    -0.681935030     1.364532150
H      -0.865417970    -0.686751220     1.035142760
C      -2.033452110    -0.558465770     2.795141800
H      -3.103907460    -0.428316030     2.960706820
H      -1.696412810    -1.459441630     3.321382150
H      -1.496588330     0.307645200     3.197494810