39
0 1 def2QZVP
H      -7.554075850     0.669490250     1.066228220
C      -6.737340560     1.056884960     0.457749400
H      -6.385053700     2.001968330     0.884688680
H      -7.105918700     1.264578630    -0.551912350
C      -5.621380370     0.021601670     0.427342970
O      -5.698774810    -1.057233490     1.004709540
N      -4.524301160     0.388514580    -0.299785810
H      -4.455100900     1.303192420    -0.727114280
C      -3.336284020    -0.444713700    -0.398559910
H      -3.361067360    -1.125125930     0.457633240
C      -3.304951810    -1.264728410    -1.699787430
H      -3.296183500    -0.596887370    -2.566104010
H      -2.413347560    -1.899494970    -1.740277160
H      -4.189360640    -1.904131610    -1.749095540
C      -2.125734870     0.493166510    -0.331013390
O      -2.100215980     1.534816600    -0.985601790
N      -1.114208630     0.096355050     0.481761630
H      -1.165536980    -0.771144920     0.998554100
C       0.135359010     0.824857140     0.588851530
H       0.208116060     1.496458980    -0.269763070
H       0.158590510     1.439490600     1.499614390
C       1.279019340    -0.187345330     0.668902880
O       1.179467930    -1.180948030     1.386671830
N       2.357845100     0.074793800    -0.105493170
H       2.413227460     0.913004000    -0.670759070
C       3.558472570    -0.751867150    -0.087361730
H       3.546900150    -1.300601970     0.858628290
C       3.586634520    -1.747060340    -1.257506470
H       3.584183880    -1.209853740    -2.210163880
H       4.483984540    -2.372140890    -1.215690540
H       2.707844890    -2.395656960    -1.210347320
C       4.753649820     0.208505760    -0.170807770
O       4.752243320     1.139647400    -0.971547090
N       5.781667820    -0.034187900     0.677962090
H       5.710269570    -0.794627360     1.335467180
C       6.983039910     0.788082510     0.664741230
H       6.736536650     1.835549250     0.864820190
H       7.667860600     0.426428550     1.433276090
H       7.478320410     0.739505700    -0.310328300