43
0 1 def2QZVP
H       6.492398780    -1.961507860    -0.267332110
C       6.483528700    -0.883856250    -0.445381270
H       6.445829850    -0.697960060    -1.521767440
H       7.419223380    -0.480035820    -0.048034860
C       5.325056440    -0.272560080     0.326562280
O       5.204484660    -0.418316660     1.537699940
N       4.446355580     0.462771550    -0.423067350
H       4.526356110     0.477479330    -1.430466770
C       3.249663230     1.073008670     0.143041060
H       3.260402850     0.801393570     1.201919200
C       3.254135390     2.596462880    -0.019424190
H       3.238397670     2.863090020    -1.079369650
H       2.371181050     3.037970400     0.453516110
H       4.147203780     3.019886520     0.446571430
C       2.037379990     0.463039990    -0.579727700
O       1.867939960     0.646165070    -1.781407890
N       1.227221240    -0.321243010     0.185026230
H       1.366228440    -0.358499990     1.186680290
C      -0.005789400    -0.910527950    -0.317171550
H      -0.092506790    -0.614239780    -1.365115020
C       0.033397370    -2.435780390    -0.213013650
H       0.866435370    -2.814701320    -0.822468630
H       0.214080640    -2.707934580     0.835838430
O      -1.227520700    -2.910027760    -0.666800260
H      -1.293653110    -3.848531570    -0.449592590
C      -1.160683080    -0.357807890     0.535629430
O      -1.200131840    -0.594352620     1.741518540
N      -2.035878730     0.456454170    -0.106465570
H      -2.006980310     0.529103600    -1.114434750
C      -3.190955520     1.055799420     0.560203820
H      -3.146226810     0.703704300     1.594310720
C      -3.134810930     2.585104260     0.512567770
H      -3.188532990     2.929205300    -0.522641010
H      -3.980318170     3.017256970     1.058118010
H      -2.206706770     2.943812400     0.966094690
C      -4.451383360     0.545691720    -0.158337010
O      -4.674832990     0.864039270    -1.323060600
N      -5.254679230    -0.271951490     0.573721180
H      -4.946745740    -0.543441830     1.495801080
C      -6.448921730    -0.891251380     0.023699230
H      -6.320803710    -1.972946860    -0.095102640
H      -7.315437980    -0.705070490     0.666616560
H      -6.623489360    -0.447382770    -0.956839460