37
0 1 def2QZVP
O      -1.586864990    -1.525973090     0.281810830
C      -2.562865060    -2.050973130    -0.207189200
O      -2.795865080    -3.375973230    -0.161189200
H      -2.053865020    -3.763973260     0.326810840
C      -3.664865140    -1.336973070    -0.965189260
H      -4.616865220    -1.650973100    -0.544189230
H      -3.630865140    -1.664973100    -2.002189340
N      -3.537865130     0.089027030    -0.885189260
H      -2.817865080     0.541027070    -1.440189300
C      -3.799865150     0.676027080     0.321810840
O      -4.414865200     0.121027040     1.220810900
C      -3.173865110     2.054027180     0.471810850
H      -3.633865140     2.559027220     1.313810910
H      -3.294865110     2.646027230    -0.434189220
N      -1.755865000     1.881027170     0.722810870
H      -1.424864970     1.625027150     1.644810940
C      -0.899864930     1.596027150    -0.280189210
O      -1.206864960     1.656027150    -1.473189300
C       0.498135170     1.199027120     0.184810820
N       0.419135170     0.639027080     1.531810930
H       1.353135240     0.533027070     1.909810960
H       0.020135140    -0.293973000     1.471810920
H       1.082135220     2.122027190     0.249810830
C       1.148135220     0.288027050    -0.866189250
H       0.535135180    -0.608973020    -0.965189260
H       1.137135220     0.803027090    -1.825189330
C       2.546135330    -0.073972980    -0.463189220
C       2.815135350    -1.273973070     0.201810830
H       2.006135290    -1.973973120     0.371810840
C       4.106135450    -1.581973090     0.629810860
H       4.296135460    -2.517973160     1.137810900
C       5.148135530    -0.686973030     0.400810840
H       6.151135600    -0.924973040     0.729810870
C       4.894135510     0.512027070    -0.262189210
H       5.701135570     1.208027120    -0.451189220
C       3.603135410     0.814027090    -0.688189240
H       3.412135390     1.744027160    -1.210189280