37
0 1 def2QZVP
O      -3.904919220     1.619540660     0.463216250
C      -3.646919200     0.465540580     0.214216230
O      -4.119919230    -0.549459500     0.943216290
H      -3.805919210    -1.398459570     0.550216260
C      -2.768919130     0.053540540    -0.964783860
H      -2.427919100     0.952540610    -1.464783890
H      -3.371919170    -0.541459500    -1.652783910
N      -1.608919040    -0.732459520    -0.581783830
H      -0.717918970    -0.274459480    -0.461783820
C      -1.719919050    -2.026459610    -0.239783800
O      -2.807919130    -2.611459660    -0.175783800
C      -0.432918950    -2.760459670     0.083216220
H      -0.491918960    -3.734459740    -0.401783810
H      -0.402918950    -2.924459680     1.160216300
N       0.760081140    -2.047459610    -0.279783800
H       1.073081160    -1.969459610    -1.237783880
C       1.648081210    -1.609459580     0.649216270
O       1.518081200    -1.766459590     1.856216360
C       2.824081300    -0.828459520     0.063216220
N       2.736081290    -0.750459520    -1.394783890
H       2.231081250     0.087540550    -1.662783910
H       3.661081360    -0.674459510    -1.797783920
H       3.720081360    -1.392459570     0.323216240
C       2.881081300     0.539540580     0.776216280
H       3.022081310     0.360540570     1.841216360
H       3.747081370     1.085540620     0.399216250
C       1.621081200     1.326540640     0.547216260
C       0.538081120     1.203540630     1.429216320
H       0.639081130     0.570540580     2.301216390
C      -0.655918970     1.881540680     1.191216310
H      -1.482919030     1.784540680     1.882216360
C      -0.793918980     2.689540740     0.062216220
H      -1.728919050     3.202540780    -0.115783790
C       0.279081100     2.830540760    -0.815783850
H       0.192081100     3.473540800    -1.681783910
C       1.478081190     2.157540700    -0.570783830
H       2.321081260     2.307540720    -1.235783880