6
0 1 def2QZVP
P       0.185982900    -0.636311800    -0.203577900
H      -0.041253000    -1.026697700     1.131204700
C      -0.385881900     1.050813700    -0.015178000
C       1.937218500    -0.269816900     0.046196000
N      -0.814711800     2.116015400     0.011744000
N       3.076358100    -0.136116000     0.115170000