6
0 1 def2QZVP
P      -0.067728000    -1.682159500     0.083681000
H      -1.431497600    -1.514274600    -0.260007900
H      -0.302004900    -1.468272600     1.472268600
N       0.040556000    -3.383869000    -0.046680000
H       0.976112700    -3.733212000    -0.162428000
H      -0.497414900    -3.966066900     0.573191800