8
0 1 def2QZVP
N       0.793979000    -1.525190000     0.000000000
P       0.000000000     1.006189000     0.000000000
F      -0.014021000    -2.675792000     0.000000000
F      -0.739593000     2.461924000     0.000000000
H       1.387530000    -1.663292000     0.814711000
H      -0.775191000     0.417444000     1.031710000
H       1.387530000    -1.663292000    -0.814711000
H      -0.775191000     0.417444000    -1.031710000