10
0 1 def2QZVP
P      -0.000104000    -1.613590000     0.000000000
H      -0.962251000    -1.637206000     1.037259000
H      -0.962251000    -1.637206000    -1.037259000
N       0.344180000    -3.291520000     0.000000000
C       0.739465000    -4.392668000     0.000000000
P       0.000000000     1.613570000     0.000000000
H       0.962150000     1.637084000     1.037259000
H       0.962150000     1.637084000    -1.037259000
N      -0.344103000     3.291540000     0.000000000
C      -0.739261000     4.392734000     0.000000000