12
0 1 def2QZVP
H       0.000000000     1.039215000     0.000000000
H       0.975536000    -0.391735000     0.000000000
H      -0.718624000    -0.750749000     0.000000000
H       1.615871000     1.288560000     0.821991000
H       0.276209000    -2.048201000    -0.821994000
H      -1.974443000     0.792779000    -0.810562000
N       1.170289000     0.899018000     0.000000000
N       0.223683000    -1.458692000     0.000000000
N      -1.407141000     0.564959000     0.000000000
H       0.276209000    -2.048201000     0.821994000
H      -1.974443000     0.792779000     0.810562000
H       1.615871000     1.288560000    -0.821991000