12
0 1 def2QZVP
O      -1.703649000     0.000000000     0.039217000
H       0.935877000     0.935877000     0.000000000
H      -0.935877000     0.935877000     0.000000000
O       0.000000000     1.703649000    -0.039217000
H      -0.935877000    -0.935877000     0.000000000
O       0.000000000    -1.703649000    -0.039217000
H       0.935877000    -0.935877000     0.000000000
O       1.703649000     0.000000000     0.039217000
H       2.295559000     0.000000000    -0.717948000
H       0.000000000     2.295559000     0.717948000
H      -2.295559000     0.000000000    -0.717948000
H       0.000000000    -2.295559000     0.717948000