12
0 1 def2QZVP
H      -0.829028000     1.947972000     0.063739000
H      -2.101507000     0.256027000    -0.063739000
H       0.829028000    -1.947972000    -0.063739000
H       1.272479000     1.691945000    -0.063739000
H      -1.272479000    -1.691945000     0.063739000
H       2.101507000    -0.256027000     0.063739000
F       2.077176000     1.199258000    -0.275173000
F       0.000000000     2.398517000     0.275173000
F       0.000000000    -2.398517000    -0.275173000
F      -2.077176000     1.199258000    -0.275173000
F      -2.077176000    -1.199258000     0.275173000
F       2.077176000    -1.199258000     0.275173000