15
0 1 def2QZVP
O       0.805713000    -2.160678000    -0.129657000
H      -0.152520000    -1.938952000    -0.065621000
H      -1.917942000    -0.465987000     0.032396000
H       0.921283000     2.713834000    -0.841416000
H       0.906250000    -2.674790000    -0.935118000
H      -2.324752000    -1.767187000     0.785714000
H       1.272148000     1.478649000     0.033495000
O       0.634538000     2.223874000    -0.066158000
O      -1.815088000    -1.445336000     0.037870000
H       1.801031000    -0.749603000     0.044921000
O       2.307120000     0.089530000     0.153151000
H       2.839095000    -0.019114000     0.945695000
O      -1.920699000     1.284208000    -0.055719000
H      -1.009279000     1.659837000    -0.065720000
H      -2.427986000     1.830532000     0.549756000