8
0 1 def2QZVP
H       0.673346000     0.000000000    -0.244115000
H      -0.673346000     0.000000000    -0.244115000
H       0.000000000     0.809962000     1.821379000
H       0.000000000    -0.839127000    -1.730643000
N       0.000000000     0.000000000    -1.165033000
N       0.000000000     0.000000000     1.208856000
H       0.000000000    -0.809962000     1.821379000
H       0.000000000     0.839127000    -1.730643000