6
0 1 def2QZVP
O       0.000756000     1.523252000     0.000000000
H      -0.086365000     0.557493000     0.000000000
H      -0.898788000     1.860643000     0.000000000
O       0.000756000    -1.396126000     0.000000000
H       0.486527000    -1.717573000     0.766199000
H       0.486527000    -1.717573000    -0.766199000