12
0 1 def2QZVP
H      -1.368356000    -0.180977000    -0.013169000
H       0.842949000    -1.094909000     0.003968000
H       0.528298000     1.276672000     0.008017000
H      -1.941415000    -1.484031000    -0.832875000
H       2.256561000    -0.944858000     0.826735000
H      -0.321706000     2.423720000     0.820266000
N      -1.414869000    -1.200455000    -0.014850000
N       1.748040000    -0.623591000     0.011230000
N      -0.333168000     1.823765000     0.003717000
H       2.265911000    -0.938111000    -0.801018000
H      -0.309348000     2.430495000    -0.807547000
H      -1.952921000    -1.486037000     0.794944000