9
0 1 def2QZVP
O      -0.027616000    -0.689983000     1.190325000
H      -0.037707000     0.477614000    -0.829995000
H      -0.037707000     0.477614000     0.829995000
O      -0.027616000     1.374206000     0.000000000
H       0.055118000    -0.961226000     0.000000000
O      -0.027616000    -0.689983000    -1.190325000
H      -0.845615000     1.879517000     0.000000000
H       0.764349000    -0.913715000     1.686779000
H       0.764349000    -0.913715000    -1.686779000