18
0 1 def2QZVP
O       0.000000000     2.699161000     0.140851000
H       0.843745000     2.201715000     0.029190000
H       2.328614000     0.370153000    -0.029190000
H      -0.110587000    -3.233926000    -0.931241000
H      -0.843745000    -2.201715000    -0.029190000
O       0.000000000    -2.699161000    -0.140851000
O       2.337542000     1.349580000    -0.140851000
H      -1.484868000     1.831562000    -0.029190000
O      -2.337542000     1.349580000    -0.140851000
O       2.337542000    -1.349580000     0.140851000
H       1.484868000    -1.831562000     0.029190000
H       2.745369000    -1.712734000     0.931241000
O      -2.337542000    -1.349580000     0.140851000
H      -2.328614000    -0.370153000     0.029190000
H      -2.855956000    -1.521192000     0.931241000
H       2.855956000     1.521192000    -0.931241000
H       0.110587000     3.233926000     0.931241000
H      -2.745369000     1.712734000    -0.931241000