10
0 1 def2QZVP
H       0.285998000     1.756818000     0.000000000
H       1.759211000     0.270887000     0.000000000
H      -1.264009000    -1.253190000     0.000000000
H      -1.582455000     0.814887000     0.000000000
H       0.801255000    -1.589401000     0.000000000
F       1.699610000     1.234839000     0.000000000
F      -0.649193000     1.998011000     0.000000000
F      -0.649193000    -1.998011000     0.000000000
F      -2.100833000     0.000000000     0.000000000
F       1.699610000    -1.234839000     0.000000000