16
1 2 def2QZVP
C      -0.688074710    -0.324434740     1.099210540
C       0.688074710     0.324434740     1.099210540
C       1.467627610    -0.060849430    -0.146997490
C       0.697921180    -0.071634990    -1.378702630
C      -0.697921180     0.071634990    -1.378702630
C      -1.467627610     0.060849430    -0.146997490
H      -1.250404310    -0.033828280     1.986525530
H      -0.590499700    -1.414315750     1.136780170
H       1.250404310     0.033828280     1.986525530
H       0.590499700     1.414315750     1.136780170
H       1.869369530    -1.097626210    -0.076014170
H       2.391531600     0.516848950    -0.294693090
H       1.210737940    -0.220148710    -2.326108870
H      -1.210737940     0.220148710    -2.326108870
H      -1.869369530     1.097626210    -0.076014170
H      -2.391531600    -0.516848950    -0.294693090