14
1 1 def2QZVP
C       1.238323150     0.000000000    -0.182274380
C       1.228527740     0.000000000     1.183985420
C       0.000000000     0.000000000     1.858447440
C      -1.228527740     0.000000000     1.183985420
C      -1.238323150     0.000000000    -0.182274380
C       0.000000000     0.000000000    -0.902352650
C       0.000000000     0.000000000    -2.264076960
H      -0.927297600     0.000000000    -2.828671630
H       0.927297600     0.000000000    -2.828671630
H       2.169591340     0.000000000    -0.737419130
H       2.153242310     0.000000000     1.746565250
H       0.000000000     0.000000000     2.943611130
H      -2.153242310     0.000000000     1.746565250
H      -2.169591340     0.000000000    -0.737419130