11
1 1 def2QZVP
C      -1.169867100    -0.170264500     0.918701190
C       0.294383910    -0.067214100     0.628905870
O       0.527080630    -0.543762630    -0.774897040
C       0.986068370     0.187353720    -1.648888710
H      -1.314566510     0.112646620     1.964240670
H      -1.530977520    -1.191085980     0.793467180
H      -1.756647640     0.509859250     0.300292040
H       0.900338360    -0.759793550     1.212423910
H       0.697636140     0.945582880     0.684268570
H       1.108202570    -0.249046710    -2.641096080
H       1.258348790     1.225725000    -1.437417590