9
1 2 def2QZVP
O      -0.306705120     2.645116610     0.000000000
C      -0.631843250     1.567976930     0.000000000
C      -1.040964180     0.261545630     0.000000000
H      -2.119468960     0.121711120     0.000000000
C      -0.140870310    -0.804701450     0.000000000
H      -0.587715540    -1.793690820     0.000000000
C       1.233305690    -0.690246840     0.000000000
H       1.740317330     0.269876430     0.000000000
H       1.853944340    -1.577587610     0.000000000