11
1 2 def2QZVP
C       0.000000000     1.153660790     0.207727430
C       0.000000000     0.700061920    -1.110097270
C       0.000000000    -0.700061920    -1.110097270
C       0.000000000    -1.153660790     0.207727430
C       0.000000000     0.000000000     1.135800200
H       0.000000000     2.192074310     0.516922220
H       0.000000000     1.330903920    -1.989450970
H       0.000000000    -1.330903920    -1.989450970
H       0.000000000    -2.192074310     0.516922220
H      -0.871790590     0.000000000     1.806998490
H       0.871790590     0.000000000     1.806998490