8
0 2 def2QZVP
C      -0.765945440     0.023344750     0.000000000
C       0.772767180     0.032144420     0.000000000
O       1.162810710    -1.270978390     0.000000000
H      -1.115836960     1.056954050     0.000000000
H      -1.143113800    -0.482908320     0.888374960
H      -1.143113800    -0.482908320    -0.888374960
H       1.116216050     0.562175900     0.901573970
H       1.116216050     0.562175900    -0.901573970