10
1 2 def2QZVP
C       1.494918790     0.000000000    -0.462613520
C       0.704455710     0.000000000     0.667288260
C      -0.704455710     0.000000000     0.667288260
C      -1.494918790     0.000000000    -0.462613520
H       2.575504640     0.000000000    -0.372885590
H       1.084945690     0.000000000    -1.466165120
H       1.198208720     0.000000000     1.634375980
H      -1.198208720     0.000000000     1.634375980
H      -1.084945690     0.000000000    -1.466165120
H      -2.575504640     0.000000000    -0.372885590