6
1 1 def2QZVP
C       0.000000000     0.000000000    -0.485477620
C       0.000000000     0.000000000     0.932442290
O       0.000000000     0.000000000     2.043247470
H       0.521213650    -0.902768520    -0.830070710
H       0.521213650     0.902768520    -0.830070710
H      -1.042427290     0.000000000    -0.830070710