14
1 1 def2QZVP
C      -1.442099780    -0.694478650     0.000000000
C      -1.442099780     0.694478650     0.000000000
C      -0.356169230     1.560479370     0.000000000
C       0.997964010     1.251407290     0.000000000
C       1.600610000     0.000000000     0.000000000
C       0.997964010    -1.251407290     0.000000000
C      -0.356169230    -1.560479370     0.000000000
H      -2.420130130     1.165473240     0.000000000
H      -2.420130130    -1.165473240     0.000000000
H      -0.597722780    -2.618794610     0.000000000
H       1.674782010    -2.100110220     0.000000000
H       2.686141790     0.000000000     0.000000000
H       1.674782010     2.100110220     0.000000000
H      -0.597722780     2.618794610     0.000000000