6
0 1 def2QZVP
Ne     -2.213864100     0.000000000    -0.000000000
Ne      2.213864100    -0.000000000     0.000000000
Ne      0.000000000    -0.000000000    -2.213864100
Ne     -0.000000000    -0.000000000     2.213864100
Ne      0.000000000     2.213864100     0.000000000
Ne     -0.000000000    -2.213864100     0.000000000