8
0 1 def2QZVP
C      -0.000000000     0.000000000     0.763257900
C      -0.000000000    -0.000000000    -0.763257900
H      -0.880685500     0.508464000     1.157842800
H       0.000000000    -1.016928100     1.157842800
H       0.880685500     0.508464000     1.157842800
H       0.880685500    -0.508464000    -1.157842800
H      -0.880685500    -0.508464000    -1.157842800
H       0.000000000     1.016928100    -1.157842800