12
0 1 def2QZVP
C      -1.198802300     0.692128800     0.000000000
C      -1.198802300    -0.692128800     0.000000000
C       0.000000000    -1.384257600     0.000000000
C       1.198802300    -0.692128800     0.000000000
C       1.198802300     0.692128800     0.000000000
C       0.000000000     1.384257600     0.000000000
H      -2.133155000    -1.231577600     0.000000000
H       0.000000000    -2.463155200     0.000000000
H       2.133155000    -1.231577600     0.000000000
H       2.133155000     1.231577600     0.000000000
H       0.000000000     2.463155200     0.000000000
H      -2.133155000     1.231577600     0.000000000