8
0 2 def2QZVP
C      -1.367789690     0.053465028     0.000000000
O      -0.184348745     0.760929934     0.000000000
C       0.976495521     0.061895201     0.000000000
H      -2.240732343     0.679411209     0.000000000
H      -1.350128216    -1.023346688     0.000000000
F       1.980434357     0.932319582     0.000000000
F       1.093034557    -0.732337133     1.082899050
F       1.093034557    -0.732337133    -1.082899050