9
0 1 def2QZVP
C       0.000000000    -1.396493844     0.016112792
S       0.000000000     0.000000000     1.198612777
C       0.000000000     1.396493844     0.016112792
H       0.000000000    -2.312246552     0.606215127
H      -0.892363366    -1.380562240    -0.610817154
H       0.892363366    -1.380562240    -0.610817154
H       0.000000000     2.312246552     0.606215127
H      -0.892363366     1.380562240    -0.610817154
H       0.892363366     1.380562240    -0.610817154