11
0 1 def2QZVP
C      -1.795188711    -0.410246125     0.000000000
C      -0.492106370     0.345354185     0.000000000
O       0.560733952    -0.504076818     0.000000000
O      -0.375069719     1.545531419     0.000000000
C       1.864453595     0.106032828     0.000000000
H      -2.622310052     0.295021400     0.000000000
H      -1.854446056    -1.053480295     0.879764505
H      -1.854446056    -1.053480295    -0.879764505
H       2.571590797    -0.719434535     0.000000000
H       1.998394309     0.724389118     0.887862972
H       1.998394309     0.724389118    -0.887862972