10
0 2 def2QZVP
C      -1.924756633    -0.512034700     0.000000000
C      -0.696621625     0.247100874     0.000000000
O       0.398971361    -0.558352709     0.000000000
O      -0.631563829     1.463117889     0.000000000
C       1.667445992     0.115132556     0.000000000
H      -1.912266804    -1.592292877     0.000000000
H      -2.859170749     0.028680750     0.000000000
H       2.415969669    -0.673070627     0.000000000
H       1.770996309     0.740859422     0.887613121
H       1.770996309     0.740859422    -0.887613121