9
0 1 def2QZVP
C      -0.942433069    -0.390948236     0.000000000
C       0.327758005     0.435043574     0.000000000
O       1.441277937    -0.463072418     0.000000000
H       2.254879000     0.052212540     0.000000000
H      -1.820412690     0.259457152     0.000000000
H      -0.985201013    -1.028789636    -0.884798252
H      -0.985201013    -1.028789636     0.884798252
H       0.354666421     1.082443330     0.886601663
H       0.354666421     1.082443330    -0.886601663