7
0 2 def2QZVP
C      -0.564447526     0.007006133     0.041281505
C       0.911860347    -0.010488342    -0.011763028
F      -1.121404452    -0.012268763    -1.201457099
F      -1.057301203    -1.066177379     0.700037764
F      -1.033099228     1.115845432     0.656381145
H       1.420486111    -0.958771455    -0.092533116
H       1.443905952     0.924854374    -0.091947171