15
0 1 def2QZVP
C       0.006157806     0.719254586     0.000000000
C      -1.196024215     0.004143182     0.000000000
C      -1.202749220    -1.385894121     0.000000000
C      -0.002143573    -2.092183316     0.000000000
C       1.200299489    -1.394511752     0.000000000
C       1.201340227    -0.001512006     0.000000000
C       0.002475158     2.228046589     0.000000000
H      -2.137344995     0.543949352     0.000000000
H      -2.146058346    -1.919732361     0.000000000
H      -0.005946349    -3.175628578     0.000000000
H       2.141013217    -1.932810687     0.000000000
H       2.145291068     0.532731805     0.000000000
H       1.017713690     2.627247521     0.000000000
H      -0.512011979     2.623449893    -0.880284006
H      -0.512011979     2.623449893     0.880284006