7
1 1 def2QZVP
C      -0.731002389     0.214765500     0.000000000
S       1.119354500     0.291587948     0.000000000
H       1.390779488    -0.593095280     0.997425251
H       1.390779488    -0.593095280    -0.997425251
H      -1.051465311     0.748787170     0.892206753
H      -1.066980466    -0.817737230     0.000000000
H      -1.051465311     0.748787170    -0.892206753