6
0 1 def2QZVP
C      -0.464814148     0.195111019     0.000000000
S       1.374760597     0.251124214     0.000000000
H       1.577905667    -1.084294405     0.000000000
H      -0.798784240     1.231321273     0.000000000
H      -0.844533938    -0.296631050    -0.893590217
H      -0.844533938    -0.296631050     0.893590217