6
0 1 def2QZVP
C       0.000000000     0.000000000    -0.488521141
C       0.000000000     0.000000000     0.966972505
N       0.000000000     0.000000000     2.117957165
H      -0.511937420    -0.886701623    -0.865469510
H      -0.511937420     0.886701623    -0.865469510
H       1.023874841     0.000000000    -0.865469510