10
0 2 def2QZVP
C      -1.212964764    -0.679902771    -0.307121708
C      -0.293697476     0.350558940     0.226831765
F      -0.471164400     0.443012075     1.611230790
F      -0.677474123     1.589276504    -0.259762130
C       1.177003457     0.143224279    -0.050438327
H      -2.260183698    -0.437521104    -0.418792790
H      -0.869934596    -1.693564720    -0.454180916
H       1.356605772     0.130504685    -1.125750351
H       1.507174632    -0.803150576     0.378713581
H       1.744635196     0.957562688     0.399270086