14
0 1 def2QZVP
C       0.729839451    -1.264119011    -0.065421529
C       0.000000000     0.000000000     0.401782906
C       0.729839451     1.264119011    -0.065421529
C      -1.459678902     0.000000000    -0.065421529
H       1.761586456    -1.284636374     0.295269225
H       0.231734506    -2.167896809     0.295269225
H       0.759029381    -1.314677452    -1.158632915
H       0.000000000     0.000000000     1.498765080
H       0.231734506     2.167896809     0.295269225
H       0.759029381     1.314677452    -1.158632915
H       1.761586456     1.284636374     0.295269225
H      -1.993320962     0.883260435     0.295269225
H      -1.993320962    -0.883260435     0.295269225
H      -1.518058761     0.000000000    -1.158632915