7
0 2 def2QZVP
C       0.050131760     0.492998888     0.038404461
C       1.370478439     0.074309829     0.051391962
N       2.482181782    -0.278692455     0.050540979
N      -0.997953642    -0.398929372     0.091272436
H      -1.907957017    -0.069092082    -0.187189090
H      -0.812681599    -1.366768843    -0.122011700
H      -0.184199724     1.546174034     0.077590951