8
0 1 def2QZVP
C      -1.029668965     0.124578364     0.000000000
O       0.261894743     0.756256828     0.000000000
C       1.334218338    -0.058442265     0.000000000
O       2.456668776     0.349785517     0.000000000
H      -1.755655265     0.932935507     0.000000000
H      -1.169204866    -0.486276535    -0.894505439
H      -1.169204866    -0.486276535     0.894505439
H       1.070952105    -1.132560881     0.000000000