8
0 2 def2QZVP
C      -1.200306396    -0.241007594     0.000000000
C       0.028400132     0.536907768     0.000000000
N       1.200774447    -0.179917505     0.000000000
O       0.021435863     1.765338789     0.000000000
H      -1.209596865    -1.323763188     0.000000000
H      -2.135699517     0.298181326     0.000000000
H       1.225619534    -1.184186215     0.000000000
H       2.069372801     0.328446619     0.000000000