11
0 1 def2QZVP
C      -1.443477239     0.517650035     0.000000000
O      -0.213479975     1.249335691     0.000000000
C       0.991615346     0.615617993     0.000000000
O       1.990564493     1.281732449     0.000000000
C       0.994842010    -0.898403866     0.000000000
H      -2.229157724     1.269543520     0.000000000
H      -1.545479529    -0.102453665    -0.891435430
H      -1.545479529    -0.102453665     0.891435430
H       0.486099663    -1.297835011     0.877738083
H       2.027852822    -1.234898470     0.000000000
H       0.486099663    -1.297835011    -0.877738083