8
0 1 def2QZVP
C      -0.962989806     0.080074961     0.000000000
C       0.530589812     0.251422534     0.000000000
O       1.169694976    -0.948011754     0.000000000
O       1.125118862     1.298671686     0.000000000
H       2.122354705    -0.763408319     0.000000000
H      -1.440599939     1.056086390     0.000000000
H      -1.272084305    -0.487417749     0.879729301
H      -1.272084305    -0.487417749    -0.879729301