7
1 2 def2QZVP
C      -0.865304086     0.038123165     0.000000000
N       0.604373981     0.020083135     0.000000000
H      -1.349556486    -0.052079736    -0.958933038
H       0.986432865     0.492099204     0.828097714
H      -1.349556486    -0.052079736     0.958933038
H       0.987177347    -0.938245236     0.000000000
H       0.986432865     0.492099204    -0.828097714