6
1 2 def2QZVP
C      -0.821559224     0.191153864     0.004068722
S       0.950480887     0.295790927     0.004968703
H      -1.309579002     0.336942771     0.957813750
H       1.244029542    -0.560847590    -1.015898531
H      -1.309753363     0.327610095    -0.950922156
H       1.246381160    -0.590650068     0.999969511