7
0 1 def2QZVP
C       0.663497977    -0.007856419     0.000000000
N      -0.840391952    -0.017091437     0.000000000
O      -1.397768879    -0.004252968    -1.086386007
O      -1.397768879    -0.004252968     1.086386007
H       1.002502628    -0.502243992     0.904671621
H       0.967426478     1.037941774     0.000000000
H       1.002502628    -0.502243992    -0.904671621