9
0 2 def2QZVP
C      -0.869777940    -1.240140579     0.043130533
S      -0.654054684     0.375471604    -0.608961232
O      -1.585541136     1.346851243     0.095525979
C       1.065281130     0.698064869     0.007070991
H      -1.846879526    -1.460710119     0.451189781
H      -0.230575480    -2.031005153    -0.330382626
H       1.742289258    -0.056661484    -0.392208047
H       1.335251322     1.686565969    -0.360135702
H       1.044007056     0.681563649     1.094770324