8
0 1 def2QZVP
C      -0.667444523    -0.392941554     0.000000000
C       0.593443819     0.440054241     0.000000000
F       1.721854413    -0.395047878     0.000000000
H      -1.543848547     0.260749454     0.000000000
H      -0.713382078    -1.027912740    -0.886406608
H      -0.713382078    -1.027912740     0.886406608
H       0.661379497     1.071505609     0.889499994
H       0.661379497     1.071505609    -0.889499994