7
0 2 def2QZVP
C      -1.067224134    -0.152742506     0.000000000
C       0.298231765     0.310379253     0.000000000
O       1.203328827    -0.709829636     0.000000000
H      -1.299889170    -1.207659426     0.000000000
H      -1.854500103     0.585679076     0.000000000
O       0.635521125     1.479999567     0.000000000
H       2.084531690    -0.305826328     0.000000000