8
0 1 def2QZVP
C      -0.832727521    -0.230052287    -0.002280010
N       0.352004296     0.617037668    -0.082748289
H       0.390452344     1.199751737     0.749658588
O       1.514579661    -0.237875512     0.062012310
H       2.020312382    -0.045188803    -0.735869371
H      -1.705208832     0.426868793     0.041644106
H      -0.834375817    -0.892297750     0.872070554
H      -0.905036512    -0.838243845    -0.904487888