6
0 1 def2QZVP
C      -0.341786446     0.121293330     0.000000000
O       1.079828485     0.198788369     0.000000000
H       1.436644141    -0.695324769     0.000000000
H      -0.713185864     1.145518544     0.000000000
H      -0.730750158    -0.385137737    -0.891466419
H      -0.730750158    -0.385137737     0.891466419