12
0 1 def2QZVP
C      -2.018649743     0.052883018     0.000000000
C       2.018649743    -0.052883018     0.000000000
N      -1.407770497    -1.142484428     0.000000000
N       1.407770497     1.142484428     0.000000000
H      -0.387244131    -1.207782489     0.000000000
H      -3.117062099    -0.013701005     0.000000000
H      -1.964596704    -1.977036767     0.000000000
H       1.964596704     1.977036767     0.000000000
H       0.387244131     1.207782489     0.000000000
H       3.117062099     0.013701005     0.000000000
O      -1.452200500     1.143634428     0.000000000
O       1.452200500    -1.143634428     0.000000000