10
0 1 def2QZVP
C      -1.888896660    -0.179692064     0.000000000
C       1.888896660     0.179692064     0.000000000
O      -1.170435427    -1.166590401     0.000000000
O      -1.493280553     1.073689433     0.000000000
O       1.493280553    -1.073689433     0.000000000
O       1.170435427     1.166590401     0.000000000
H      -0.498833171     1.107195381     0.000000000
H      -2.979489015    -0.258829098     0.000000000
H       2.979489015     0.258829098     0.000000000
H       0.498833171    -1.107195381     0.000000000