12
0 1 def2QZVP
N      -0.363758304     1.289660435     0.194923791
N       0.270712034    -0.763293001     1.027626990
H      -0.649920504     1.467512420    -1.852655484
H      -0.079686795    -0.914394265    -2.319014837
H       0.595796727    -1.309770720     1.816362701
H      -0.481863266     2.277958155     0.349804545
C      -0.378107253     0.773632616    -1.071412312
C      -0.066922108    -0.515512611    -1.319498591
C       0.338640145    -1.381081838    -0.227598056
C       0.001609580     0.561664167     1.311718180
O       0.727008160    -2.534634530    -0.333054813
O       0.086491584     1.048259172     2.422797887