6
0 1 def2QZVP
O      -1.655420610    -0.123300384     0.000000000
O       1.246212442     0.102688700     0.000000000
H      -0.704090257     0.031931674     0.000000000
H      -2.038672732     0.753722936     0.000000000
H       1.575985578    -0.382521463    -0.758561294
H       1.575985578    -0.382521463     0.758561294