16
0 1 def2QZVP
H      -2.973468595     1.363332223     0.000000000
H      -0.808595461     2.552991568     0.000000000
H       2.174556715     2.040258564     0.000000000
H      -0.998958413    -2.456713030     0.000000000
H      -3.072550916    -1.100218490     0.000000000
H       1.799175284    -2.148914901     0.000000000
H       3.496092825    -0.309625638     0.000000000
C       2.434004421    -0.130518175     0.000000000
C       0.265734810    -0.696552262     0.000000000
C      -0.954163124    -1.375505390     0.000000000
C      -2.050382513     0.799208519     0.000000000
C      -2.108850890    -0.609064852     0.000000000
C       0.350789729     0.723516626     0.000000000
C       1.737072560     1.056323948     0.000000000
C      -0.838662132     1.470915684     0.000000000
N       1.548205699    -1.179434393     0.000000000