15
0 1 def2QZVP
C      -0.714146936    -0.659657559     1.207702248
C      -1.410907040    -0.634587428     0.000000000
C      -0.714146936    -0.659657559    -1.207702248
C       0.679592738    -0.709745085    -1.207865632
C       1.376605867    -0.734786829     0.000000000
C       0.679592738    -0.709745085     1.207865632
C       0.070823738     2.701470549     0.000000000
H      -2.491293095    -0.592940513     0.000000000
H      -1.254321291    -0.637862563    -2.144051372
H       1.219916031    -0.727309872    -2.144257022
H       2.457216876    -0.772216404     0.000000000
H       1.219916031    -0.727309872     2.144257022
H      -1.254321291    -0.637862563     2.144051372
H       0.143256958     1.636051025     0.000000000
N      -0.007784390     3.866159760     0.000000000