15
0 1 def2QZVP
N      -1.951783866     0.561067096     0.000000000
N      -0.033329248     2.023688953     0.000000000
N       1.202121471    -1.346379143     0.000000000
N       2.043243604     0.739745437     0.000000000
N      -1.815491478    -1.757387629     0.000000000
C      -1.337577532     1.763246457     0.000000000
C       0.188215860    -0.416977024     0.000000000
C       2.296732508    -0.604293202     0.000000000
C       0.678168050     0.888725515     0.000000000
C      -1.212826420    -0.560267204     0.000000000
H      -2.007236826     2.613998438     0.000000000
H       3.302140655    -0.990778184     0.000000000
H       2.717433230     1.486934539     0.000000000
H      -2.827788319    -1.821739220     0.000000000
H      -1.242021689    -2.579584827     0.000000000