24
0 1 def2QZVP
O      -1.466332067     1.012169655     0.000000000
O      -0.597223136     5.486408801     0.000000000
O       1.466332067    -1.012169655     0.000000000
O       0.597223136    -5.486408801     0.000000000
C       1.276904001     4.006177691     0.000000000
C      -0.128600544     4.362156451     0.000000000
C      -0.628146598     1.914268454     0.000000000
C       0.628146598    -1.914268454     0.000000000
C      -1.636729552    -2.705277481     0.000000000
C      -1.276904001    -4.006177691     0.000000000
C       0.128600544    -4.362156451     0.000000000
C       1.636729552     2.705277481     0.000000000
N       0.720509533     1.688269371     0.000000000
N      -0.977723332     3.239644429     0.000000000
N      -0.720509533    -1.688269371     0.000000000
N       0.977723332    -3.239644429     0.000000000
H       1.023251860     0.706182221     0.000000000
H      -1.970027506     3.432386237     0.000000000
H       2.010351069     4.793866164     0.000000000
H       2.669062882     2.388342460     0.000000000
H      -2.010351069    -4.793866164     0.000000000
H      -1.023251860    -0.706182221     0.000000000
H       1.970027506    -3.432386237     0.000000000
H      -2.669062882    -2.388342460     0.000000000