6
0 1 def2QZVP
C      -0.294062438     0.576964206     0.000000000
O       0.272386764     1.667715596     0.000000000
N       0.316816780    -0.618403221     0.000000000
H      -0.240009419    -1.452955519     0.000000000
H       1.337343144    -0.683701244     0.000000000
H      -1.392474831     0.510380182     0.000000000