12
0 1 def2QZVP
C      -1.208186513    -0.697546808     0.000000000
C      -1.208186513     0.697546808     0.000000000
C       0.000000000     1.395093617     0.000000000
C       1.208186513     0.697546808     0.000000000
C       1.208186513    -0.697546808     0.000000000
C       0.000000000    -1.395093617     0.000000000
H      -2.144027426    -1.237854812     0.000000000
H      -2.144027426     1.237854812     0.000000000
H       0.000000000     2.475709624     0.000000000
H       2.144027426     1.237854812     0.000000000
H       2.144027426    -1.237854812     0.000000000
H       0.000000000    -2.475709624     0.000000000