28
0 1 def2QZVP
C       2.400268507     1.586537667     0.000000000
C       2.601378379     0.919376412    -1.208292199
C       3.006151214    -0.415221392    -1.208365122
C       3.209753868    -1.082208728     0.000000000
C       3.006151214    -0.415221392     1.208365122
C       2.601378379     0.919376412     1.208292199
C      -0.627744431    -2.127800368     0.000000000
C      -2.001508259    -2.219927815     0.000000000
C      -2.504864691    -0.885560957     0.000000000
C      -1.375697808    -0.018888946     0.000000000
C      -1.501232920     1.373289646     0.000000000
C      -2.784283083     1.898168052     0.000000000
C      -3.917084421     1.059001708     0.000000000
C      -3.791450143    -0.320198664     0.000000000
H       2.090772467     2.622658995     0.000000000
H       2.439544895     1.435213658    -2.144590856
H       3.158669129    -0.933618603    -2.144838645
H       3.525183227    -2.116630541     0.000000000
H       3.158669129    -0.933618603     2.144838645
H       2.439544895     1.435213658     2.144590856
H       0.694892708    -0.474364397     0.000000000
H       0.119370434    -2.903796057     0.000000000
H      -2.570208929    -3.134084016     0.000000000
H      -0.630505535     2.015475142     0.000000000
H      -2.919390133     2.971309294     0.000000000
H      -4.902233045     1.505460064     0.000000000
H      -4.669652150    -0.952769608     0.000000000
N      -0.255872895    -0.807170620     0.000000000