12
0 1 def2QZVP
C      -1.207128523     0.696935978     0.000000000
C      -1.207128523    -0.696935978     0.000000000
C       0.000000000    -1.393871956     0.000000000
C       1.207128523    -0.696935978     0.000000000
C       1.207128523     0.696935978     0.000000000
C       0.000000000     1.393871956     0.000000000
H      -2.143561772     1.237585966     0.000000000
H      -2.143561772    -1.237585966     0.000000000
H       0.000000000    -2.475171933     0.000000000
H       2.143561772    -1.237585966     0.000000000
H       2.143561772     1.237585966     0.000000000
H       0.000000000     2.475171933     0.000000000