17
0 1 def2QZVP
C       1.393218300     0.036291325    -1.093767920
C       0.728036648    -1.188401912    -1.093789309
C      -0.665179941    -1.224708103    -1.093767920
C      -1.393204570    -0.036297276    -1.093789309
C      -0.728038359     1.188416778    -1.093767920
C       0.665167922     1.224699188    -1.093789309
C       0.000000000     0.000000000     2.622133235
H       1.292959222    -2.110541625    -1.092227689
H      -1.181323267    -2.175008885    -1.092211621
H      -2.474262275    -0.064464720    -1.092227689
H      -1.292951315     2.110560402    -1.092211621
H       1.181303052     2.175006345    -1.092227689
H       2.474274582     0.064448483    -1.092211621
H       0.586877777     0.838174508     2.985891122
H      -1.019319305     0.089163810     2.985891122
H       0.000000000     0.000000000     1.536183020
H       0.432441528    -0.927338318     2.985891122