15
0 1 def2QZVP
N       0.320887697    -0.223367608    -2.137658477
N      -1.556126111     0.021047096    -0.919060233
N      -1.377123369     0.371507328     2.098274559
N       0.927349504     0.215594185     1.804192143
N       1.982564432    -0.107872602    -0.349661063
H      -1.197289194     0.232143699     3.078549144
H      -2.250287959     0.008176080     1.750564149
H       2.947620287     0.076143167     1.454139618
H       0.902593778    -0.422583165    -2.935037469
H      -1.617854692    -0.247514296    -3.033230046
C      -0.448139482     0.059856478    -0.107309378
C       0.736805062    -0.093757293    -0.835871858
C       1.976821749     0.061598310     0.975101238
C      -0.304550534     0.206283215     1.283575907
C      -1.043271169    -0.157254594    -2.126568233