12
0 1 def2QZVP
C      -1.207195517    -0.696974657     0.000000000
C      -1.207195517     0.696974657     0.000000000
C       0.000000000    -1.393949314     0.000000000
C       0.000000000     1.393949314     0.000000000
C       1.207195517     0.696974657     0.000000000
C       1.207195517    -0.696974657     0.000000000
H       0.000000000    -2.474433068     0.000000000
H       2.142921897    -1.237216534     0.000000000
H       2.142921897     1.237216534     0.000000000
H       0.000000000     2.474433068     0.000000000
H      -2.142921897     1.237216534     0.000000000
H      -2.142921897    -1.237216534     0.000000000