25
0 1 def2QZVP
O      -1.478619040    -2.019177302    -0.384247512
N      -1.545252691     0.230843154     0.002288825
N       1.351764967     0.230630659    -0.032892088
N       1.307315660    -2.041644257     0.402873782
C      -2.198948157     1.397365552     0.216897105
C      -2.158381220    -0.997089321    -0.206882747
C      -3.596601553    -0.938535068    -0.192699847
C      -4.266738426     0.236327261     0.019154729
C       2.034423533    -0.913685032     0.151168677
C       3.442762784    -0.934949691     0.137561471
C       4.137594067     0.240238649    -0.069534202
C       3.428974893     1.428162218    -0.261917671
C       2.047017265     1.361993109    -0.234478763
C      -3.564258222     1.444971903     0.233134014
H      -1.573917283     2.265070700     0.371560657
H      -4.121121269    -1.868185614    -0.354868318
H      -0.507523949     0.227873056    -0.009587479
H      -5.348803746     0.237403139     0.024200631
H       3.964924968    -1.869476036     0.290747118
H       5.218947308     0.233261245    -0.083276204
H       3.930096426     2.369092291    -0.429946617
H       1.452991105     2.256044807    -0.383997925
H      -4.073031956     2.379417187     0.404500279
H       1.788474879    -2.914617959     0.277097316
H       0.327909657    -2.041334647     0.113144768