6
0 1 def2QZVP
C       0.000000000     0.667402974     0.000000000
C       0.000000000    -0.667402974     0.000000000
H       0.923389996     1.233791465     0.000000000
H       0.923389996    -1.233791465     0.000000000
H      -0.923389996     1.233791465     0.000000000
H      -0.923389996    -1.233791465     0.000000000