10
0 1 def2QZVP
C       0.000000000     0.000000000    -1.859161680
C       0.000000000     0.000000000     1.859161680
H       0.888621394    -0.513045801    -1.494593249
H       0.000000000     1.026091602    -1.494593249
H       0.000000000     0.000000000    -2.948284940
H      -0.888621394    -0.513045801    -1.494593249
H       0.000000000     0.000000000     2.948284940
H      -0.888621394     0.513045801     1.494593249
H       0.888621394     0.513045801     1.494593249
H       0.000000000    -1.026091602     1.494593249