13
0 1 def2QZVP
N      -1.296942534     0.430344863    -0.023395908
N      -1.341391841    -1.841930054     0.412369962
C       0.794055283    -0.735235488     0.147057651
C       1.488886566     0.439952853    -0.060038022
C       0.780267392     1.627876421    -0.252421491
C      -0.601690236     1.561707312    -0.224982583
C      -0.614283968    -0.713970829     0.160664857
H       2.570239807     0.432975449    -0.073780025
H       1.281388925     2.568806495    -0.420450437
H      -1.195716396     2.455759011    -0.374501745
H       1.316217467    -1.669761833     0.300243298
H      -0.860232622    -2.714903755     0.286593495
H      -2.320797844    -1.841620443     0.122640948