15
0 1 def2QZVP
N       1.027029061    -0.217306716    -1.455456332
N      -1.244123958     0.005701221    -1.245900855
H       2.177445779    -0.208924745     0.277105344
H      -0.072661416     1.090014920     2.578055926
H      -0.408601137    -0.632577737     2.695970512
H       1.262812798    -0.061814573     2.531675269
H      -2.149838350     0.120026928    -1.680594231
H       1.836897714    -0.284952604    -2.049022575
C       0.109165734     0.029333865     0.737214313
C       0.233697387     0.107950161     2.221558576
C      -1.216903459     0.137674689     0.146737213
C       1.164621828    -0.134534183    -0.091708966
C      -0.179961761    -0.125200586    -2.111077860
O      -0.288219496    -0.149847216    -3.326318480
O      -2.251360724     0.324456577     0.771762147