24
0 1 def2QZVP
C      -1.250395871    -1.208617444    -0.279193535
O       0.042062752    -1.506158318     0.236541083
C       1.052651601    -0.592191700    -0.212190722
C       0.695830823     0.815478735     0.294541790
C      -1.715973189     0.167081705     0.204408723
C      -0.689638981     1.220875030    -0.197452359
H       1.093442622    -0.585875805    -1.313296291
O      -0.978218888     2.498408647     0.365503435
O      -2.958033887     0.548703997    -0.379344655
O      -2.159471099    -2.150041036     0.211303556
O       1.694478096     1.729105179    -0.162409841
H      -3.632042772    -0.096295270    -0.109839555
C       2.399561269    -1.096712318     0.317200442
H      -1.896323392    -3.033924344    -0.092423351
H       1.399302194     2.627340336     0.064439761
H      -1.874125394     2.754289809     0.090764991
H       2.489563873    -2.162660805     0.089808908
H      -0.670925803     1.296929714    -1.296144010
H      -1.797810227     0.129376682     1.300099445
H      -1.212446678    -1.233656048    -1.382699320
H       0.686185747     0.798528677     1.395120573
O       3.496097034    -0.451133927    -0.310272011
H       3.353402155     0.510036642    -0.246316289
H       2.432828015    -0.978888139     1.411849231