24
0 1 def2QZVP
C      -0.616098626    -1.461914960    -0.260827292
O       0.683598376    -1.158222959     0.233132709
C       1.195662376     0.101321042    -0.240147292
C       0.281873375     1.234755043     0.246417709
C      -1.618133627    -0.415094959     0.231145708
C      -1.156394626     0.971990043    -0.201626292
O      -1.964951627     2.005563043     0.355190709
O       0.770357376     2.457453044    -0.289673292
C       2.623327377     0.207108042     0.283980709
O       3.437017379    -0.858099959    -0.188821292
H      -2.884786628     1.843699044     0.088235708
H       0.114162375     3.145600045    -0.088115292
H       3.008252378    -1.687008960     0.079565709
O      -1.020117626    -2.698751961     0.249483709
O      -2.914659628    -0.613292959    -0.325016292
H      -1.194939626     1.027125043    -1.301446293
H       0.304773375     1.265880043     1.347236710
H       1.218161376     0.095031042    -1.341335293
H       3.073636378     1.134035043    -0.076452292
H      -0.458273625    -3.398694961    -0.119864292
H      -3.244903628    -1.477474960    -0.030249292
H      -0.589779626    -1.479060960    -1.364095293
H      -1.653700627    -0.470999959     1.328513710
H       2.605917378     0.229057042     1.384766710