26
0 1 def2QZVP
C       2.344716618    -0.036671000     0.868684155
C       1.279961617    -0.993345001     0.334769154
C       0.201016615    -0.305583000    -0.513169847
C      -0.848381385     0.507309001     0.284201154
C      -2.070280386    -0.422822000     0.319254154
O      -1.899266387    -1.271444001     1.456440155
C      -1.934435386    -1.164738001    -1.008457847
O       3.043211618     0.632639001    -0.175523846
O      -1.239357386     1.695602002    -0.387991847
O       1.984400617    -1.946307002    -0.467791847
O      -0.529962385    -1.350815001    -1.201368847
C      -0.309624385     2.765911003    -0.261065846
H       1.892774617     0.740372001     1.492093155
H       3.039728618    -0.612031000     1.496474155
H       0.794989616    -1.499589001     1.182288155
H       0.677612616     0.329415000    -1.267437847
H      -0.519671385     0.735020001     1.307357155
H      -2.997212387     0.157930000     0.389913154
H      -2.585728387    -1.950950002     1.454257155
H      -2.413248387    -2.149805002    -1.013357847
H      -2.355318387    -0.556591000    -1.821865848
H       3.362824619    -0.054606000    -0.779257847
H       1.320599617    -2.422764002    -0.989526847
H      -0.193074385     3.058904003     0.792876155
H       0.676581616     2.508953002    -0.669193847
H      -0.722857385     3.606006003    -0.822597847