24
0 1 def2QZVP
C      -0.112885073    -1.418638548    -0.780362554
O       0.409592437    -0.236548715    -1.363648484
C       0.619800022     0.889905815    -0.502538250
C      -0.610116086     1.207577870     0.367780854
C      -1.439005975    -1.162434644    -0.046267291
C      -1.247603280    -0.050889087     1.009515793
O      -0.486797517    -0.499194793     2.124549967
O      -1.660437901     1.793834001    -0.422680398
C       1.931150828     0.774794155     0.328828346
O       2.882254362    -0.116345438    -0.256160363
H       0.129113675    -1.185826955     1.802964263
H      -1.335902962     2.594302483    -0.864241141
H       2.976337808     0.089208750    -1.200714604
O       0.793330241    -1.988476102     0.160863539
O      -2.470747727    -0.863512648    -0.970219152
H      -2.231802880     0.245770682     1.385862938
H      -0.318410571     1.895037912     1.174213942
H       0.751511834     1.711942238    -1.219023589
H       2.363465238     1.780058846     0.437353646
H       1.703487849    -1.750095344    -0.111972394
H      -2.393889657     0.076702883    -1.216358890
H      -0.265720789    -2.088282491    -1.632305253
H      -1.732895905    -2.085261085     0.464247837
H       1.746172027     0.386370213     1.330311237