26
0 1 def2QZVP
C      -2.848707503    -0.995439809    -0.110618846
C      -1.492067501    -0.804185808     0.588776154
C      -0.356726501    -0.522731808    -0.404123847
C       1.013220501    -0.216834808     0.240249154
C       1.164443501     1.313971194     0.055882154
O       0.620511501     2.032262194     1.150303155
C       0.405522500     1.538619194    -1.252602848
O      -3.397637503     0.261341192    -0.501239847
O       1.996110502    -0.958023809    -0.475321847
O      -1.611351501     0.252815193     1.551315155
O      -0.711417501     0.631047193    -1.197838847
C       3.249160503    -1.056162809     0.189523154
H      -2.741625503    -1.674666809    -0.967390847
H      -3.568212504    -1.431932809     0.587810155
H      -1.239368501    -1.721920809     1.135679155
H      -0.235715500    -1.392526809    -1.063884847
H       1.043066501    -0.480079808     1.306475155
H       2.212904502     1.611351194    -0.029666846
H      -0.187351500     1.571184194     1.447126155
H       0.014566500     2.554411195    -1.342649848
H       1.035775501     1.299181193    -2.120133848
H      -2.753576503     0.678574193    -1.099894847
H      -2.362843502     0.796025193     1.253179155
H       3.723635504    -0.075501808     0.329168154
H       3.137198503    -1.536927809     1.172274155
H       3.890485504    -1.673847809    -0.442393847