26
0 1 def2QZVP
C       2.457402079     0.856771809     0.674143847
C       1.733967079    -0.478190193     0.480439847
C       0.595921078    -0.409665193    -0.550125155
C      -0.679623924     0.288010808    -0.036510154
C      -1.792428925    -0.757499193    -0.249492154
O      -2.767777926    -0.653201193     0.784992847
C      -1.010993924    -2.076584194    -0.244854154
O       3.140064080     1.264622809    -0.501575155
O      -0.854250924     1.501259809    -0.742955154
O       2.725222080    -1.410105194     0.047390846
O       0.214671077    -1.763577194    -0.908664155
C      -1.844619925     2.366179810    -0.196711154
H       3.156897080     0.752896809     1.516687848
H       1.743563079     1.649562809     0.917324847
H       1.323853078    -0.799475193     1.452817848
H       0.951827078     0.078901808    -1.460359155
H      -0.617584924     0.493552808     1.045366847
H      -2.243612925    -0.584046193    -1.235854155
H      -3.533045927    -1.199434194     0.563211847
H      -1.493135925    -2.886178195    -0.800420154
H      -0.843363924    -2.404884195     0.792593847
H       3.668554081     0.505500808    -0.791005155
H       2.254749079    -2.149376195    -0.369345154
H      -2.849072926     1.929166809    -0.255096154
H      -1.626350925     2.601849810     0.855021847
H      -1.810827925     3.283939811    -0.787025155