26
0 1 def2QZVP
C      -2.581161156     0.327741116     0.621089462
C      -1.366206155     0.359877116    -0.299559539
C      -0.049392154     0.230598116     0.467876462
C       1.209336847     0.048151115    -0.428362539
C       1.560541848    -1.444229886    -0.241450539
O       0.905809847    -2.277870887    -1.181651540
C       1.100011847    -1.682016886     1.196537463
O      -3.730325157     0.383195116    -0.239167539
O       2.311070849     0.814760116     0.049075462
O      -1.458797155    -0.696862885    -1.259336540
O      -0.106763154    -0.912469886     1.333889463
C       2.287842848     2.176560118    -0.346334539
H      -2.570130157    -0.597664885     1.206017463
H      -2.561129156     1.190644117     1.300672463
H      -1.355878155     1.325299117    -0.830921539
H       0.074797846     1.136908116     1.079045462
H       1.014617847     0.276900116    -1.483770540
H       2.634009849    -1.599432886    -0.368531539
H      -0.024243154    -1.995833886    -1.254601540
H       0.856343847    -2.728686887     1.392081463
H       1.855422848    -1.331359886     1.913972463
H      -4.516394158     0.118215116     0.253492462
H      -2.384445156    -0.742368885    -1.544695540
H       2.273569848     2.270718117    -1.442405540
H       1.421195848     2.714932118     0.065447462
H       3.200292849     2.634298118     0.041591462