26
0 1 def2QZVP
C       2.350208002     0.614957770     0.259905962
C       1.476062001    -0.602825231    -0.027398038
C       0.119892000    -0.249600231    -0.653946039
C      -0.927387001     0.320759770     0.334424962
C      -1.840222002    -0.890405232     0.624453962
O      -1.301219001    -1.728004232     1.646319963
C      -1.776295002    -1.652277232    -0.690851039
O       3.596671004     0.237836770     0.825705962
O      -1.745246002     1.327258771    -0.247287039
O       2.233851002    -1.411058232    -0.930313039
O      -0.440045000    -1.472401232    -1.178196040
C      -1.138429001     2.608863772    -0.327927039
H       2.500607002     1.175811771    -0.676164039
H       1.869951002     1.277206770     0.986900962
H       1.302976001    -1.158476232     0.905812962
H       0.268224000     0.441768769    -1.494223040
H      -0.465388000     0.699716770     1.258816963
H      -2.854795003    -0.555998231     0.869240962
H      -1.401439001    -1.292529232     2.502939964
H      -1.954364002    -2.722128234    -0.560220039
H      -2.497663002    -1.236682232    -1.406704040
H       3.956150004    -0.467888231     0.267585962
H       1.652722002    -2.127122233    -1.228419040
H      -0.850706001     2.973435772     0.669512962
H      -0.250406000     2.607026772    -0.975103039
H      -1.883710002     3.282752773    -0.754870039