24
0 1 def2QZVP
C       0.836607849    -0.224478419     1.121311139
C       0.382566137    -1.358786158     0.181267118
C      -0.591865186    -0.889018523    -0.925098579
O      -0.152853304     0.323162016    -1.570756934
C       1.264142292     1.012916988     0.310632992
C       0.245956481     1.425403108    -0.779216653
O      -0.811748515     2.175095986    -0.244493611
O       1.520545550    -1.996250495    -0.385830677
C      -2.082231265    -0.854076388    -0.552964922
H      -1.546373543     1.565623362     0.008151617
O      -2.461221995     0.105885774     0.434340386
H       2.120426234    -1.299294308    -0.711423103
H      -1.919648434    -0.047228167     1.236072358
O      -0.240406719     0.058139895     2.027844177
O       2.520804521     0.641237800    -0.276139476
H       0.756759369     2.090089298    -1.488436345
H      -0.117575400    -2.125688943     0.783493086
H       2.787060602     1.313217962    -0.924321318
H      -0.511737163    -1.644001495    -1.715847594
H      -2.654036715    -0.596591977    -1.448435619
H      -0.073300109     0.897636377     2.486105302
H       1.703546537    -0.584030661     1.688354594
H       1.405047260     1.875324888     0.979400135
H      -2.380464484    -1.864287918    -0.234008072