6
1 2 def2QZVP
O       1.516177850     0.000000000     0.069842800
O      -1.516177860     0.000000000    -0.069842910
H       1.649551990     0.775137000    -0.509520920
H       1.649551990    -0.775137000    -0.509520920
H      -1.649551950     0.775137000     0.509521800
H      -1.649551950    -0.775137000     0.509521800