8
1 2 def2QZVP
N       0.000000000     0.000000000    -1.354069240
N       0.000000000     0.000000000     1.354069240
H       0.842973030     0.486690710    -1.629742680
H       0.000000000    -0.973381410    -1.629742680
H      -0.842973030     0.486690710    -1.629742680
H       0.842973030    -0.486690710     1.629742680
H       0.000000000     0.973381410     1.629742680
H      -0.842973030    -0.486690710     1.629742680