8
1 2 def2QZVP
N       0.000000000     0.000000000    -1.083255390
N       0.000000000     0.000000000     1.083255390
H       0.842973030     0.486690710    -1.358928830
H       0.000000000    -0.973381410    -1.358928830
H      -0.842973030     0.486690710    -1.358928830
H       0.842973030    -0.486690710     1.358928830
H       0.000000000     0.973381410     1.358928830
H      -0.842973030    -0.486690710     1.358928830