8
1 2 def2QZVP
N       0.000000000     0.000000000    -1.895696940
N       0.000000000     0.000000000     1.895696940
H       0.842973030     0.486690710    -2.171370380
H       0.000000000    -0.973381410    -2.171370380
H      -0.842973030     0.486690710    -2.171370380
H       0.842973030    -0.486690710     2.171370380
H       0.000000000     0.973381410     2.171370380
H      -0.842973030    -0.486690710     2.171370380