12
0 1 def2QZVP
N      -1.030599940    -0.432318840     0.000000000
C      -1.812521130     0.683610870     0.000000000
N      -1.086410610     1.781013120     0.000000000
C       0.217003740     1.344077650     0.000000000
C       0.283362860    -0.028511490     0.000000000
C       1.427524110    -0.978799130     0.000000000
H       1.042165140     2.035026790     0.000000000
H      -2.887327750     0.635451440     0.000000000
H       1.421517210    -1.618143630    -0.882371410
H       2.359382010    -0.420306370     0.000000000
H       1.421517210    -1.618143630     0.882371410
H      -1.355612840    -1.382956780     0.000000000