12
0 1 def2QZVP
C      -0.667171480    -1.035679350     0.000000000
C      -1.412897760     0.128476970     0.000000000
C      -0.756195740     1.359293200     0.000000000
C       0.627784580     1.363510220     0.000000000
N       1.367526900     0.243503780     0.000000000
C       0.723509620    -0.912501720     0.000000000
O       1.467067890    -2.042895130     0.000000000
H      -2.492450510     0.079845560     0.000000000
H      -1.303815810     2.289134130     0.000000000
H       1.181320930     2.292708310     0.000000000
H      -1.121635140    -2.014204150     0.000000000
H       2.386956540    -1.751191820     0.000000000