13
0 1 def2QZVP
C      -0.926854670    -0.138441520    -0.013015610
C      -0.228272320     1.112776980     0.019602190
C       1.121750980     1.037614770     0.064613200
N       1.726822130    -0.170382420     0.079640500
C       1.028656980    -1.395492010     0.049310400
N      -0.340975930    -1.310966610    -0.003765510
O       1.662664230    -2.432680390     0.066524000
N      -2.285703170    -0.125528620    -0.020005010
H      -0.738833660     2.060940750     0.016725890
H       1.763279330     1.905389140     0.092181800
H      -2.773005610     0.712889350    -0.270864330
H      -2.739110310    -1.004776480    -0.195091420
H       2.729582010    -0.251342930     0.114143900