12
0 1 def2QZVP
C      -0.754248880     1.168666280     0.000000000
C       0.663678350     1.263187880     0.000000000
C       1.380180840     0.108901360     0.000000000
N       0.742862090    -1.093647890     0.000000000
H       1.278333650    -1.948818940     0.000000000
C      -0.641450770    -1.283270330     0.000000000
O      -1.111618850    -2.414866070     0.000000000
C      -1.382256330    -0.040673550     0.000000000
H      -1.346453930     2.073510080     0.000000000
H       1.170421600     2.213570690     0.000000000
H       2.458721660     0.076373560     0.000000000
H      -2.458169430    -0.122933060     0.000000000