12
0 1 def2QZVP
C      -0.809168400    -1.626150930     0.000000000
N      -1.657887460    -0.565112390     0.000000000
C      -0.889453700     0.572672450     0.000000000
C       0.414551610     0.138297660     0.000000000
N       0.449460810    -1.237581750     0.000000000
C       1.663936080     0.948767900     0.000000000
H      -2.660937690    -0.606588400     0.000000000
H      -1.320857710     1.556800030     0.000000000
H      -1.156810710    -2.644282580     0.000000000
H       2.265937790     0.725563540     0.878313640
H       2.265937790     0.725563540    -0.878313640
H       1.435291580     2.012050920     0.000000000