13
0 1 def2QZVP
N      -0.436933390    -1.177921430     0.000000000
C      -1.188048520    -0.000851820     0.000000000
C      -0.383497580     1.208469840     0.000000000
C       0.957704420     1.117702330     0.000000000
N       1.598367870    -0.096841180     0.000000000
C       0.928856670    -1.308527420     0.000000000
N      -2.463809320    -0.118925810     0.000000000
O       1.507369950    -2.375893840     0.000000000
H      -0.868783290     2.169912280     0.000000000
H       1.599454100     1.985232110     0.000000000
H      -2.893272980     0.800639520     0.000000000
H      -0.958226470    -2.041853720     0.000000000
H       2.600818530    -0.161140850     0.000000000