9
0 1 def2QZVP
C      -0.366696390     1.097709150     0.000000000
C      -0.742653990    -0.207489950     0.000000000
C       0.260541960    -1.237671800     0.000000000
O       1.475491180    -1.004175870     0.000000000
O       0.888677580     1.506885050     0.000000000
H      -1.084157770     1.907346840     0.000000000
H      -1.788451010    -0.463879200     0.000000000
H      -0.081008460    -2.280356820     0.000000000
H       1.438256910     0.681632590     0.000000000