13
0 1 def2QZVP
C      -0.444831630    -0.815257960     0.000531400
C      -1.218205380     0.354922330     0.038392300
C      -0.527055230     1.543789320     0.075682610
N       0.812539970     1.613379520     0.080485610
C       1.428260020     0.437441530     0.043084800
N       0.887206970    -0.773251660    -0.000092100
O       2.772004520     0.453663430     0.043825900
N      -1.012576370    -2.056294150     0.007368600
H      -2.296526270     0.327316820     0.043685900
H      -1.053106170     2.488722190     0.104362010
H      -1.967915640    -2.144703060    -0.283760520
H      -0.397927220    -2.815482910    -0.228231320
H       3.018132440     1.385754600     0.074664810