59
-1 1 def2QZVP
H      -3.090970300    -3.064019300     4.283077700
O      -2.487484200    -2.581622500     3.695880000
C      -3.140412700    -2.417238600     2.423393100
H      -4.139300600    -1.983447000     2.553717900
H      -3.233649600    -3.381419300     1.905118400
C      -2.297305100    -1.491458600     1.569729800
H      -2.719792400    -1.467733200     0.560309200
O      -2.332038800    -0.131619300     2.101563900
C      -1.008999700     0.310301000     2.413675300
H      -0.622650200     0.984574600     1.645434900
N      -1.079722400     1.100975700     3.642666000
C      -1.483891500     0.499760800     4.813297900
H      -1.731735100    -0.553407300     4.718888200
C      -1.590502300     1.170816200     5.984062900
H      -1.903276400     0.667616500     6.889035800
C      -1.306006900     2.583902600     6.027407300
O      -1.366057800     3.317172100     7.021237300
N      -0.955615100     3.126712600     4.782056200
H      -0.769833100     4.126112400     4.754623900
C      -0.830692500     2.474208400     3.572406300
O      -0.541591200     3.058206400     2.531242400
C      -0.818013000    -1.875226700     1.495506500
H      -0.655217500    -2.934108500     1.706111800
C      -0.142107900    -0.959891300     2.518724400
H      -0.231446400    -1.398267300     3.515001900
O       1.234223600    -0.744178200     2.252029900
H       1.338081700    -0.936119800     1.296979400
O      -0.276691600    -1.531014800     0.206390800
P       0.263947300    -2.744539200    -0.780721800
O      -0.763003900    -3.837204900    -0.810736400
O       1.700060000    -3.026964400    -0.457842600
O       0.274763300    -1.884125700    -2.162741100
C      -0.975366200    -1.420232600    -2.723389300
H      -1.550025900    -0.885762900    -1.959646700
H      -1.555438900    -2.275830000    -3.086276800
C      -0.648182000    -0.490637200    -3.875107300
H      -1.567682000    -0.268818900    -4.425767600
O      -0.130456800     0.773279400    -3.350909200
C       1.181154000     1.019349900    -3.842429900
H       1.188055000     1.772519500    -4.633890200
N       1.972897900     1.584917100    -2.738215300
C       1.943335600     0.975498600    -1.505913200
H       1.303804200     0.100679200    -1.456839200
C       2.638889200     1.441059700    -0.441141800
H       2.588448900     0.954134900     0.523262900
C       3.459692700     2.618102900    -0.579630600
O       4.146819200     3.145815500     0.302861200
N       3.432393100     3.173574200    -1.867047700
H       3.997097900     4.005836800    -2.017549700
C       2.733240700     2.730547700    -2.971763800
O       2.782446600     3.303394800    -4.058310700
C       0.423327900    -1.030031000    -4.831696600
H       0.503999100    -2.117503800    -4.786955100
C       1.710266000    -0.337908300    -4.355169700
H       2.139621200    -0.897662700    -3.520874800
O       2.692988300    -0.226065800    -5.367521300
H       2.186915200    -0.150519100    -6.203389100
O       0.183720100    -0.600120000    -6.185472200
H      -0.075028700    -1.374371100    -6.708743600