59
-1 1 def2QZVP
H      -3.366511300     1.023476100    -4.825323600
O      -2.949077500     0.590355000    -4.063814000
C      -3.718106100     0.914701200    -2.890976100
H      -4.777762300     0.677274000    -3.044342500
H      -3.621743500     1.981787300    -2.648901300
C      -3.188200200     0.105098700    -1.723587300
H      -3.681768500     0.447686700    -0.809240000
O      -3.522569600    -1.309540600    -1.901359500
C      -2.333443300    -2.090744400    -1.985477200
H      -2.167090800    -2.652205000    -1.062876700
N      -2.505284100    -3.097166400    -3.037997800
C      -2.700896100    -2.685158800    -4.336798400
H      -2.727569800    -1.606717300    -4.468780700
C      -2.871316700    -3.549649800    -5.364419200
H      -3.016354800    -3.191821600    -6.374952900
C      -2.878016400    -4.969008100    -5.111685000
O      -3.024139300    -5.866473600    -5.949742600
N      -2.725589300    -5.299531000    -3.756777200
H      -2.749300700    -6.289065600    -3.523822800
C      -2.545478500    -4.447778200    -2.685751300
O      -2.436772100    -4.853727000    -1.530783100
C      -1.665620000     0.166351300    -1.553851400
H      -1.242849000     1.077992200    -1.976519800
C      -1.172184800    -1.110995500    -2.245215100
H      -1.060005600    -0.924848100    -3.314536600
O       0.073536400    -1.587253200    -1.762518400
H       0.054005400    -1.422937100    -0.798662300
O      -1.279032800     0.039950600    -0.173757100
P      -1.151294600     1.391284300     0.779280600
O      -1.887377800     1.130424900     2.053995600
O      -1.430490600     2.594410900    -0.074187200
O       0.434650400     1.309887200     1.167141400
C       1.404312600     1.411218400     0.107959300
H       1.237963100     2.332099300    -0.461379700
H       1.318482900     0.555642500    -0.572832400
C       2.790085600     1.403318000     0.709280100
H       3.520232700     1.418378800    -0.110080000
O       2.991199400     2.590541500     1.524054500
C       3.714220200     2.290976200     2.699351200
H       4.549066000     2.984073300     2.818312400
N       2.808118100     2.469335000     3.888914500
C       1.491944400     2.826194500     3.744209100
H       1.174242000     2.959699200     2.719283000
C       0.652952800     2.977361500     4.800380800
H      -0.381367100     3.254745500     4.646863100
C       1.131591700     2.758414700     6.139053500
O       0.482060100     2.860336700     7.188550400
N       2.485141000     2.389810200     6.194179200
H       2.878532600     2.220948600     7.116627600
C       3.361843300     2.228755900     5.142839500
O       4.539472500     1.903991700     5.299996000
C       3.103545900     0.233428800     1.638159600
H       2.217240300    -0.059290500     2.208239000
C       4.176040900     0.831437800     2.566060300
H       4.244411700     0.323279600     3.530083300
O       5.439356100     0.834366800     1.898599400
H       5.426608700     0.042172000     1.323121400
O       3.597953600    -0.860386300     0.861569700
H       3.478402800    -1.676908500     1.374844300