59
-1 1 def2QZVP
H      -4.912586700    -1.981645200     0.534995200
O      -4.198351300    -1.470500000     0.122066500
C      -4.133261300    -1.843263500    -1.262377000
H      -5.094820400    -1.665689800    -1.760008000
H      -3.869753200    -2.903940900    -1.375136000
C      -3.056086300    -1.026868800    -1.937437900
H      -2.990148800    -1.345649300    -2.985632700
O      -3.390902600     0.386671400    -1.907847900
C      -2.232956800     1.171297000    -1.709256700
H      -2.148152400     1.931152700    -2.489140500
N      -2.375602600     1.910191700    -0.412697400
C      -3.393285000     1.645514800     0.469760200
H      -4.026547900     0.811734700     0.191013500
C      -3.578905200     2.366505700     1.603891900
H      -4.391879300     2.133985200     2.278532300
C      -2.695057500     3.456453300     1.924877600
O      -2.761971500     4.205283200     2.904890000
N      -1.652898600     3.619255000     0.993792400
H      -0.992861500     4.372163500     1.170551300
C      -1.433316600     2.901142700    -0.163379100
O      -0.513809400     3.149087200    -0.943837100
C      -1.662665200    -1.113913300    -1.309601900
H      -1.717508000    -1.198997500    -0.220814500
C      -1.030085900     0.215376300    -1.745174000
H      -0.204623200     0.548360700    -1.111008300
O      -0.608269200     0.130259900    -3.111104000
H      -0.482432300    -0.821032800    -3.297227400
O      -0.986167600    -2.247824100    -1.861480500
P       0.031863300    -3.161534800    -0.925713500
O       0.352019400    -4.342949100    -1.787765800
O      -0.528231600    -3.277952100     0.457189900
O       1.347944700    -2.204927000    -0.753648900
C       2.106845600    -1.777876700    -1.901369700
H       1.467913500    -1.209161300    -2.583066400
H       2.514821600    -2.646732200    -2.430508400
C       3.234149400    -0.889301900    -1.412435700
H       3.796595200    -0.526591700    -2.278707100
O       2.663837200     0.268857800    -0.725773100
C       3.155551100     0.341326800     0.609535000
H       3.928780700     1.105980400     0.712446700
N       2.061381000     0.753102800     1.495934100
C       0.923085200    -0.018260200     1.564203700
H       0.919221100    -0.875146900     0.897486300
C      -0.113723100     0.271470500     2.384762100
H      -0.990484300    -0.361189000     2.420179600
C      -0.045641200     1.426996800     3.245919700
O      -0.901415800     1.796375800     4.053746200
N       1.133549900     2.175383400     3.086488500
H       1.226497400     3.006691600     3.664959600
C       2.204380700     1.916617300     2.254510300
O       3.199252700     2.637173100     2.215862700
C       4.195983100    -1.556147100    -0.418590000
H       4.178199700    -2.645158500    -0.492688400
C       3.705434700    -1.060916500     0.946926400
H       2.891187100    -1.701236700     1.294875300
O       4.713272400    -1.052354300     1.940837300
H       5.547919100    -0.897744400     1.450763000
O       5.541318000    -1.066329400    -0.581845800
H       6.073398300    -1.763576700    -0.995723600