59
-1 1 def2QZVP
H       1.536855100     2.186826800    -3.280605500
O       0.878389300     2.190042400    -2.568011900
C       1.358871600     3.053092100    -1.523364900
H       1.570807800     4.056198700    -1.913812700
H       2.270740000     2.647306500    -1.063897700
C       0.287489600     3.146024600    -0.456495700
H       0.682547300     3.713477400     0.391755100
O      -0.869486600     3.865929600    -0.990742300
C      -2.046344200     3.084921500    -0.842480500
H      -2.638542900     3.389063700     0.024337100
N      -2.892233100     3.321154900    -2.023111200
C      -2.328673400     3.243605700    -3.275636100
H      -1.257706600     3.058877800    -3.272652700
C      -3.047486900     3.399169800    -4.413756100
H      -2.570409900     3.341614500    -5.383324700
C      -4.467388900     3.646856600    -4.338894000
O      -5.240575300     3.801856700    -5.291761400
N      -4.957151400     3.705903500    -3.025816600
H      -5.952917500     3.879852900    -2.915911700
C      -4.259325100     3.543700000    -1.845908000
O      -4.799736600     3.602169600    -0.743611600
C      -0.234647200     1.789113000     0.035995500
H       0.468301600     0.978378400    -0.163417900
C      -1.563051500     1.622883900    -0.712740000
H      -1.366571100     1.214969000    -1.707749000
O      -2.491464100     0.769576500    -0.070648400
H      -2.400997100     0.957652400     0.884373800
O      -0.557384400     1.842018300     1.444652300
P       0.608292300     1.256136200     2.467837300
O       0.102660200     1.572517000     3.842457800
O       1.952829900     1.687390700     1.970490900
O       0.553599200    -0.356837100     2.198022400
C      -0.561090300    -1.118398700     2.699506600
H      -1.455899800    -0.902825300     2.105422400
H      -0.752185300    -0.855815500     3.745365500
C      -0.227453400    -2.589770900     2.614534400
H      -1.052344000    -3.154630100     3.067384400
O      -0.097008900    -2.994451100     1.224126800
C       0.908182700    -3.977804500     1.080091300
H       0.516422300    -4.857504700     0.566723600
N       2.007346300    -3.422702000     0.226456900
C       2.105460500    -2.083583500    -0.046114000
H       1.308609400    -1.481601700     0.373215700
C       3.129222000    -1.559648600    -0.766779400
H       3.178939700    -0.497924900    -0.969765500
C       4.174608600    -2.416267500    -1.263803500
O       5.157623100    -2.075103600    -1.934052300
N       4.007783500    -3.765964500    -0.912004500
H       4.725897400    -4.414636200    -1.224286000
C       2.986466100    -4.325829700    -0.175248100
O       2.929056200    -5.525137500     0.097620900
C       1.088128700    -3.018559700     3.260648300
H       1.859341400    -2.260089100     3.097876200
C       1.421145900    -4.308184600     2.488392300
H       2.488003100    -4.550968600     2.493204000
O       0.647355400    -5.392300400     3.002153300
H       0.548450500    -5.209664100     3.959031400
O       0.882741700    -3.248677400     4.654941200
H       1.745907300    -3.203398900     5.099786400