59
-1 1 def2QZVP
H      -5.351691900    -1.398349500    -2.372872800
O      -4.519811300    -1.428588700    -1.873864800
C      -4.670135200    -0.592773800    -0.716069900
H      -5.582718700    -0.851138400    -0.165061500
H      -4.720251000     0.467440600    -1.000996600
C      -3.470604900    -0.769995100     0.184885000
H      -3.563270300    -0.066693800     1.021879000
O      -3.428310800    -2.124761300     0.725671200
C      -2.091219000    -2.570849800     0.838801900
H      -1.898170100    -2.950857100     1.843192200
N      -1.870462400    -3.710366500    -0.111455700
C      -2.764813300    -4.019218300    -1.103354000
H      -3.637359800    -3.376924900    -1.144270400
C      -2.561197700    -5.040822200    -1.974167300
H      -3.286123100    -5.262453400    -2.746176900
C      -1.369458100    -5.842562400    -1.882842300
O      -1.058959500    -6.796663700    -2.608235400
N      -0.505940800    -5.447425900    -0.848086700
H       0.357708500    -5.974355000    -0.743596400
C      -0.683676500    -4.418133700     0.051767700
O       0.137187300    -4.136546500     0.924860900
C      -2.101314200    -0.596281100    -0.470836500
H      -2.085979200    -1.039774900    -1.469547000
C      -1.188249100    -1.387006200     0.472559500
H      -0.255936000    -1.707253600     0.000494600
O      -0.927609400    -0.631716200     1.656469300
H      -0.915901600     0.305176200     1.377668000
O      -1.747546000     0.783544500    -0.523113000
P      -0.918217000     1.340955600    -1.855408300
O      -1.869249400     2.169448900    -2.666344500
O      -0.130680200     0.219019900    -2.457351300
O       0.153454000     2.303882900    -1.088299900
C      -0.331871000     3.366502000    -0.242134700
H      -1.193310900     3.025193200     0.340186900
H      -0.632094500     4.223525200    -0.855270200
C       0.777238200     3.786672700     0.692200900
H       0.435627000     4.660346200     1.262214200
O       1.057052100     2.703075800     1.625073200
C       2.433649500     2.657091400     1.946058100
H       2.576570300     2.658923000     3.027795200
N       3.018190100     1.378037600     1.418347700
C       2.317244400     0.545801600     0.585063800
H       1.319247500     0.886821200     0.347154800
C       2.844528700    -0.597372300     0.079063500
H       2.264609900    -1.227092800    -0.581943400
C       4.198623700    -0.968677200     0.394602900
O       4.804102800    -1.974904300     0.003787000
N       4.854559000    -0.039642100     1.218999300
H       5.821027200    -0.242988100     1.461426000
C       4.345975900     1.125882700     1.749966300
O       5.008978200     1.889567700     2.452528600
C       2.135654400     4.088876200     0.067641800
H       2.356391500     3.379156500    -0.735746100
C       3.083558400     3.867046600     1.257858600
H       4.116451700     3.671324900     0.958683800
O       3.011496300     4.978870100     2.151365000
H       2.886023100     5.764221500     1.581505000
O       2.147569100     5.431304300    -0.418613600
H       2.869414100     5.514479600    -1.064112500