59
-1 1 def2QZVP
H       3.028759300    -1.810435500    -4.528097000
O       2.626282200    -1.777916400    -3.645712900
C       1.985886600    -0.498484400    -3.493437600
H       1.300048800    -0.306459100    -4.327484100
H       2.733606900     0.305711400    -3.453746700
C       1.204411000    -0.496854200    -2.194011600
H       0.823945200     0.513737200    -2.015661800
O       0.046401500    -1.388815600    -2.290352000
C       0.166415200    -2.447902600    -1.339193900
H      -0.518097700    -2.289819500    -0.502444300
N      -0.264878700    -3.698258200    -1.967362000
C       0.461603400    -4.224102900    -3.011921000
H       1.327779100    -3.635612700    -3.300331200
C       0.110309800    -5.365204800    -3.650341000
H       0.706083200    -5.756039400    -4.464265200
C      -1.090321400    -6.061627100    -3.261955000
O      -1.531321100    -7.106453500    -3.755646000
N      -1.811059200    -5.415769700    -2.246206900
H      -2.687423800    -5.846589600    -1.962157200
C      -1.481926600    -4.257141800    -1.572936700
O      -2.209607800    -3.761821400    -0.715299700
C       1.995725100    -0.974483400    -0.976271800
H       3.070099900    -0.802032600    -1.068302900
C       1.627773600    -2.457235200    -0.852840600
H       2.249901800    -3.048556300    -1.527541800
O       1.786928400    -2.987255500     0.451896800
H       1.634414300    -2.253311200     1.087708300
O       1.495914900    -0.317806000     0.197530300
P       2.498475000     0.246328200     1.378095500
O       3.860969500     0.491568500     0.800470200
O       2.291163200    -0.632968800     2.577329500
O       1.734360400     1.646832600     1.702527700
C       1.873631700     2.736535500     0.765993200
H       1.899854600     2.355489900    -0.260406600
H       2.805804900     3.273956100     0.968254800
C       0.707825600     3.684711500     0.928853000
H       0.916795800     4.585330800     0.336493400
O      -0.509672500     3.073363700     0.419302900
C      -1.623183700     3.456340300     1.201227000
H      -2.406662900     3.881300300     0.570687100
N      -2.201807400     2.234600300     1.845778000
C      -1.544589100     1.031860600     1.859397600
H      -0.578116900     1.038347300     1.371877800
C      -2.069260200    -0.077013900     2.440471100
H      -1.527107300    -1.013195000     2.435685800
C      -3.360340800    -0.018732600     3.075459000
O      -3.951846900    -0.946883300     3.641445400
N      -3.960426300     1.249272100     3.009880800
H      -4.874620100     1.347735100     3.444304100
C      -3.455518300     2.391175000     2.427159600
O      -4.057673300     3.465144400     2.414965000
C       0.366000600     4.094565800     2.360961700
H       0.500158600     3.251167700     3.044163100
C      -1.123853300     4.463883800     2.245463600
H      -1.665913900     4.379881000     3.192450200
O      -1.254107000     5.774808800     1.695460200
H      -0.478651200     6.271628200     2.027726900
O       1.183763300     5.200087700     2.746995500
H       1.216894100     5.229418100     3.717912500