59
-1 1 def2QZVP
H      -2.800458800    -1.439761300     2.793686300
O      -2.665814000    -1.108114400     1.891541500
C      -2.579460600    -2.239219600     1.004954200
H      -3.469475200    -2.873538900     1.098748100
H      -1.688070000    -2.841661900     1.226037300
C      -2.471054300    -1.727348500    -0.417348700
H      -2.264386500    -2.575618200    -1.076171700
O      -3.736848500    -1.131824300    -0.841384000
C      -3.545733200     0.231646200    -1.204317100
H      -3.542275200     0.362112300    -2.289424400
N      -4.692893400     0.998883700    -0.706946200
C      -4.998619300     0.942444100     0.633233100
H      -4.342103800     0.302664200     1.217953100
C      -6.043294000     1.611639600     1.174766100
H      -6.257242300     1.542942600     2.232785200
C      -6.891770500     2.419736800     0.333698200
O      -7.869611100     3.084474600     0.695674700
N      -6.527160300     2.396116300    -1.020754100
H      -7.101353200     2.941687300    -1.658644800
C      -5.473776000     1.724664700    -1.607654000
O      -5.254296500     1.767134400    -2.816341200
C      -1.399452100    -0.650215200    -0.618696000
H      -0.620809000    -0.682035000     0.146214800
C      -2.196614000     0.660421300    -0.590571000
H      -2.340244000     0.972373000     0.446099500
O      -1.581479800     1.736389100    -1.276682900
H      -1.173346900     1.343864100    -2.072996500
O      -0.820103300    -0.754752200    -1.935605500
P       0.635738400    -1.525334700    -2.058110900
O       0.918601600    -1.568870900    -3.528648300
O       0.630459000    -2.742878500    -1.186082100
O       1.656996900    -0.489624800    -1.310816400
C       1.953624500     0.797269100    -1.893592200
H       1.244474000     1.538036600    -1.509855300
H       1.876330600     0.740645200    -2.984865000
C       3.370333000     1.175306100    -1.505947300
H       3.627382100     2.130436400    -1.975033900
O       3.467210200     1.352180800    -0.058485500
C       4.364105900     0.386593400     0.494597100
H       5.315281400     0.853878500     0.760191900
N       3.805555700    -0.103753600     1.757293700
C       2.649622200    -0.852656400     1.751723100
H       2.230088100    -1.032191600     0.767044400
C       2.066069500    -1.310479800     2.884053800
H       1.161809200    -1.903588100     2.846497800
C       2.644887100    -0.995912600     4.167220900
O       2.218969800    -1.347437100     5.273181900
N       3.785947800    -0.183643300     4.085982700
H       4.214396700     0.092423700     4.966473500
C       4.407828300     0.299865900     2.953467600
O       5.392320400     1.033743900     3.004925200
C       4.406657600     0.106707300    -1.878325800
H       4.070277700    -0.521646200    -2.705195900
C       4.583566100    -0.696314800    -0.579163200
H       3.814410100    -1.467938900    -0.517754200
O       5.847144200    -1.329653400    -0.479560600
H       6.459674900    -0.748345200    -0.977366500
O       5.683051700     0.700428100    -2.187459900
H       5.844931600     0.597650300    -3.138244700