59
-1 1 def2QZVP
H       3.102119600    -5.076481700     1.850756300
O       2.665018800    -4.245840900     1.603984100
C       1.662956300    -3.963938300     2.593348200
H       2.072193300    -4.074037800     3.604714100
H       0.809047000    -4.646957400     2.485645000
C       1.154389900    -2.552249900     2.410185200
H       0.309260700    -2.390194100     3.089923500
O       2.214210500    -1.602429100     2.749297400
C       2.157561500    -0.471442300     1.899583500
H       2.133916300     0.448421700     2.484872800
N       3.402290300    -0.413253500     1.074522300
C       4.149094300    -1.532600400     0.810976100
H       3.771898800    -2.449973100     1.253545800
C       5.278864400    -1.494813900     0.059411900
H       5.846378500    -2.396178800    -0.130303300
C       5.739298000    -0.248178700    -0.494834900
O       6.747647600    -0.072959100    -1.190908000
N       4.911807300     0.842397100    -0.180211400
H       5.185703600     1.749211400    -0.550086200
C       3.757879700     0.838836300     0.576675300
O       3.092745000     1.850049200     0.792835300
C       0.754792000    -2.151111700     0.992526100
H       1.464856400    -2.551418000     0.262010500
C       0.897171000    -0.616484900     1.034640900
H       1.027410200    -0.177931300     0.042506800
O      -0.162371200     0.021258100     1.747819000
H      -0.934051200     0.103496800     1.157719900
O      -0.552737600    -2.644998100     0.714546700
P      -1.127633000    -2.565862500    -0.828488100
O      -2.083437000    -3.710430700    -0.969411900
O      -0.007946700    -2.308274000    -1.787276300
O      -1.975109100    -1.156435800    -0.753886400
C      -3.124138000    -1.107070600     0.118817000
H      -2.819560400    -1.307561100     1.152429300
H      -3.857738000    -1.861079600    -0.185689800
C      -3.738303800     0.265415000     0.011465500
H      -4.642884800     0.297778700     0.631716300
O      -2.779252500     1.238684900     0.522436800
C      -2.908541200     2.471990800    -0.174318300
H      -3.089877900     3.291190500     0.521429100
N      -1.626097900     2.773590900    -0.866209300
C      -0.778792200     1.779915000    -1.289098600
H      -1.108666900     0.770737000    -1.065327200
C       0.382355300     2.037546800    -1.938765100
H       1.031658000     1.232577400    -2.255830500
C       0.759993300     3.397441400    -2.229932200
O       1.782330200     3.773788400    -2.813151600
N      -0.187833800     4.344066300    -1.804646000
H       0.016352100     5.319523700    -2.007655000
C      -1.374444700     4.115181000    -1.142396500
O      -2.156969900     5.012984000    -0.832007100
C      -4.063858900     0.775992000    -1.390383600
H      -3.282068600     0.482562200    -2.097367200
C      -4.059318000     2.300323600    -1.175603400
H      -3.885552100     2.869675600    -2.095021100
O      -5.272899400     2.701813000    -0.542010200
H      -5.963244200     2.106044400    -0.897118400
O      -5.332914700     0.266504700    -1.796382400
H      -5.384956400     0.311189000    -2.766020500