59
-1 1 def2QZVP
H       5.218394900    -2.815277100     0.194392400
O       4.541990100    -2.122417900     0.130969800
C       5.184677900    -0.911398200    -0.303326900
H       5.881532000    -1.117054600    -1.124106400
H       5.739946400    -0.447267600     0.522866700
C       4.133667600     0.068801300    -0.771419200
H       4.624923600     1.025410100    -0.991716700
O       3.500116700    -0.417841100    -1.988782800
C       2.131109400    -0.058039400    -2.010391400
H       1.885442600     0.489292100    -2.921329600
N       1.314327300    -1.307255000    -2.037576400
C       1.783573500    -2.484766600    -1.511499200
H       2.787900700    -2.433786200    -1.100622200
C       1.050951900    -3.626554500    -1.513637900
H       1.448228200    -4.541314100    -1.094370700
C      -0.267449000    -3.637319200    -2.090549800
O      -1.035293100    -4.602538300    -2.171529500
N      -0.674271500    -2.384233700    -2.582284800
H      -1.596032500    -2.336924000    -3.008879000
C       0.040821300    -1.204138300    -2.586160300
O      -0.411894500    -0.149114300    -3.028712200
C       2.969474500     0.317391300     0.185847400
H       2.678831200    -0.611152800     0.689289000
C       1.839120100     0.774360800    -0.755571000
H       0.843279900     0.566072400    -0.360063100
O       1.955756600     2.153145700    -1.094102900
H       1.755167000     2.631350100    -0.265729700
O       3.369402700     1.280814100     1.164815700
P       2.441177200     1.466109900     2.503962600
O       3.174122400     2.446559700     3.367264900
O       1.987451600     0.137261600     3.033754800
O       1.158936900     2.207294900     1.767464800
C      -0.143632200     2.081438100     2.372168100
H      -0.212460700     2.731100800     3.253385100
H      -0.297682200     1.041930100     2.681470300
C      -1.192383400     2.512120300     1.375588800
H      -0.989307600     3.530417600     1.022304400
O      -1.183292800     1.618826600     0.228572400
C      -2.496260200     1.393487200    -0.243231700
H      -2.572831500     1.641098600    -1.303150200
N      -2.806514800    -0.066680800    -0.114789100
C      -2.027575700    -0.925026700     0.616527100
H      -1.159321000    -0.466227900     1.071449100
C      -2.313419000    -2.243932600     0.748337900
H      -1.673550400    -2.894520600     1.328845100
C      -3.483520400    -2.795459500     0.111201300
O      -3.864782400    -3.969330400     0.153603800
N      -4.221401500    -1.847367000    -0.618299800
H      -5.059527000    -2.180545000    -1.088715200
C      -3.953467500    -0.503951300    -0.771704600
O      -4.666250400     0.256769900    -1.424616200
C      -2.623215700     2.428605200     1.909744200
H      -2.745301600     1.557833500     2.563916700
C      -3.440782000     2.245302100     0.615536400
H      -4.404885800     1.754858900     0.781719800
O      -3.609278700     3.505897100    -0.029470300
H      -3.684705500     4.161128300     0.693840600
O      -2.949091900     3.631714800     2.602809600
H      -3.680941500     3.445041500     3.214690300