59
-1 1 def2QZVP
H       5.590406600    -0.355879300    -2.950188400
O       4.807632600    -0.377019500    -2.376697500
C       3.650099800    -0.495900600    -3.219185700
H       3.795998800    -1.283960900    -3.968079800
H       3.450019200     0.449927400    -3.740926200
C       2.439801400    -0.824086600    -2.376405200
H       1.553142300    -0.815579600    -3.021744500
O       2.584208100    -2.162712100    -1.805218100
C       2.018313200    -2.208401700    -0.509458500
H       1.325998100    -3.046994100    -0.424396500
N       3.101629500    -2.440578400     0.497606000
C       4.424961900    -2.241166900     0.204345700
H       4.621923600    -1.907024200    -0.809454000
C       5.409961000    -2.437778400     1.118172400
H       6.446850900    -2.271967000     0.857037700
C       5.083336400    -2.870849500     2.451446700
O       5.877897300    -3.090513800     3.375828500
N       3.705863300    -3.035314200     2.665696800
H       3.417735000    -3.330036400     3.595242300
C       2.681997600    -2.841389100     1.762240300
O       1.494699700    -3.001264100     2.044293500
C       2.192508200     0.058025500    -1.155199600
H       3.134745800     0.285561400    -0.645890500
C       1.324766000    -0.862683900    -0.274172100
H       1.326019800    -0.575682600     0.781076100
O       0.001497000    -0.992443300    -0.776818000
H      -0.481625100    -0.151864200    -0.613866400
O       1.554708900     1.274767900    -1.539910100
P       1.660971900     2.564149000    -0.518448700
O       1.209941900     3.752368300    -1.312051100
O       2.982718700     2.519755600     0.189209100
O       0.515596000     2.160216300     0.592041700
C      -0.709734400     2.910181000     0.665966300
H      -0.522321400     3.978124000     0.522563100
H      -1.104986200     2.736418000     1.671233300
C      -1.705460800     2.446371000    -0.376655000
H      -1.331708900     2.669366800    -1.381761700
O      -1.879101200     1.003688800    -0.262855600
C      -3.206661800     0.618420400    -0.587384600
H      -3.211729600    -0.066863600    -1.437479600
N      -3.776028800    -0.110198300     0.588578900
C      -3.069283400    -0.292380100     1.750489300
H      -2.070862100     0.123676900     1.740645100
C      -3.580698100    -0.945417400     2.823669500
H      -2.993674700    -1.075377200     3.722988100
C      -4.917902200    -1.478924200     2.774041700
O      -5.505724700    -2.090100300     3.674624000
N      -5.564086000    -1.254130600     1.548473200
H      -6.510793500    -1.613998200     1.455260000
C      -5.072368300    -0.598744500     0.440774100
O      -5.717424900    -0.457157700    -0.597294300
C      -3.117967800     2.992739400    -0.202902400
H      -3.381835500     3.067833700     0.857858200
C      -3.973455100     1.913421000    -0.898419300
H      -5.002643600     1.884525000    -0.533294400
O      -3.933678500     2.112799100    -2.310442900
H      -3.845965800     3.081002500    -2.431029200
O      -3.221137400     4.262003900    -0.847792300
H      -3.977090700     4.739039400    -0.465979700