11
0 1 def2QZVP
C       0.000000000     1.265790030    -0.259784060
H      -0.881481360     1.298774170    -0.904080630
H       0.881481360     1.298774170    -0.904080630
H       0.000000000     2.166499460     0.355805970
C       0.000000000     0.000000000     0.592915670
H       0.875492290     0.000000000     1.247740020
H      -0.875492290     0.000000000     1.247740020
C       0.000000000    -1.265790030    -0.259784060
H       0.881481360    -1.298774170    -0.904080630
H       0.000000000    -2.166499460     0.355805970
H      -0.881481360    -1.298774170    -0.904080630