6
0 2 def2QZVP
C       0.111473830    -0.490702900     0.000000000
H      -0.413285590    -0.887691070     0.878214880
H       1.132498580    -0.867239820     0.000000000
H      -0.413285590    -0.887691070    -0.878214880
N       0.107931090     0.953334870     0.000000000
H      -0.875333320     1.238584770     0.000000000