9
0 1 def2QZVP
H       0.000000000     0.000000000     0.000000000
O       0.000000000     0.000000000     0.958296759
C       1.352447343     0.000000000     1.404529049
C       1.333659362     0.000000000     2.917506256
H       1.879912487     0.885595105     1.034023858
H       1.879912487    -0.885595105     1.034023858
H       2.350714923     0.000000000     3.311779455
H       0.814910841    -0.884130410     3.287982378
H       0.814910841     0.884130410     3.287982378