8
0 1 def2QZVP
Si     -0.000331321     0.000000000    -1.170884305
H      -1.390426550     0.000000000    -1.684731964
H       0.694980943     1.204045477    -1.683890485
H       0.694980943    -1.204045477    -1.683890485
Si      0.000331321     0.000000000     1.170884305
H       1.390426550     0.000000000     1.684731964
H      -0.694980943     1.204045477     1.683890485
H      -0.694980943    -1.204045477     1.683890485