11
-1 1 def2QZVP-WATER27
H       1.830520473    -1.896846378    -0.693962841
O       2.202288061    -1.151954542    -0.216614193
H       1.380563325    -0.684856431     0.150309813
H       0.000000000     0.000000000     1.620593000
H      -0.097178595     1.538031126     0.150309813
H       0.727456914     2.533700420    -0.693962841
O      -0.103522133     2.483214678    -0.216614193
O       0.000000000     0.000000000     0.660208663
H      -1.283384729    -0.853174695     0.150309813
O      -2.098765928    -1.331260136    -0.216614193
H      -2.557977387    -0.636854043    -0.693962841