60
0 1 def2QZVP-WATER27
O       1.597295372     3.634293205     0.116562805
O       3.457003375     1.545780785     0.871504507
O      -0.574240040     3.488956311     1.795637663
O       0.629560194     2.903099304    -2.480329019
O       2.562887209     0.238042287     2.975801757
O      -0.006125384     1.303090538     3.625068976
O       3.669476031    -0.192022445    -1.250798384
O      -2.658817800     2.724450809     0.371134572
O       1.936518072     0.591060237    -3.388808935
O      -1.981952741     2.489926612    -2.338997895
O       2.035664414    -2.401816598     2.178727574
O      -1.884579378    -0.668721349     3.299757816
O       2.793215066    -2.798418930    -0.302045777
O      -3.713504010     0.209032746     1.226285287
O       0.106272549    -1.293281097    -3.648573973
O      -2.381295962    -0.258993587    -3.053072956
O      -0.727968515    -2.902455343     2.551592615
O       0.594151453    -3.461153249    -1.784129159
O      -3.483425104    -1.665153967    -0.760210030
O      -1.664796512    -3.426559028    -0.038899259
H       0.836657250     3.649800325     0.740694973
H       1.986974763     4.512651000     0.136360256
H       2.853158448     2.255247875     0.599101219
H       3.556443008     0.952866408     0.092497054
H      -0.860346079     4.257473633     2.297115238
H      -1.367615583     3.198061492     1.259714248
H       1.005817305     3.135429350    -1.614034965
H       1.117618958     2.117931041    -2.797787469
H       3.221885448     0.333964500     3.668759817
H       2.917311200     0.736237082     2.182588434
H       0.886880241     0.970391118     3.422738470
H      -0.158377489     2.047999539     3.021247648
H       3.373083313    -1.073574780    -0.971529116
H       3.105089955     0.053995972    -2.005135106
H      -2.465656375     2.661055307    -0.584824825
H      -3.030226171     1.864223864     0.634949990
H       1.244893842    -0.122664923    -3.503229819
H       2.368594874     0.684440090    -4.242188730
H      -2.398805803     3.103618879    -2.949934663
H      -0.999085433     2.650961056    -2.409156387
H       1.089413117    -2.567353513     2.348527259
H       2.219955540    -1.493776572     2.490105483
H      -2.506714376    -0.343726169     2.629195627
H      -1.228582239     0.052333282     3.440662760
H       3.552166368    -3.386611797    -0.256295446
H       2.501963318    -2.647914565     0.646434400
H      -4.622288847     0.263883838     1.534572516
H      -3.699625910    -0.472578083     0.515399316
H       0.251187983    -2.033303998    -3.037317235
H      -0.796296507    -0.952311207    -3.459325367
H      -2.286138780     0.678876880    -2.811561879
H      -2.775397944    -0.698397210    -2.282263254
H      -0.919023960    -3.559496252     3.226494734
H      -1.171749668    -2.054260348     2.852884773
H       0.722764457    -4.309109983    -2.217980362
H       1.421006257    -3.276064083    -1.280366745
H      -4.248667546    -2.174163562    -1.042046728
H      -2.790722184    -2.335878276    -0.488494502
H      -0.884420579    -3.452862738    -0.620977166
H      -1.328462462    -3.286551714     0.868197367