24
0 1 def2QZVP-WATER27
O       1.990591227    -0.108400323    -1.465229212
H       1.330292858    -0.846786844    -1.530451974
H       2.703539698    -0.310345199    -2.076240160
O      -0.108400323    -1.990591227     1.465229212
H      -0.310345199    -2.703539698     2.076240160
H      -0.846786844    -1.330292858     1.530451974
O      -1.938753356    -0.025575631     1.401609330
H      -2.172466802     0.026360801     0.458369503
H      -1.398824120     0.767044202     1.564464855
O       0.025575631    -1.938753356    -1.401609330
H      -0.026360801    -2.172466802    -0.458369503
H      -0.767044202    -1.398824120    -1.564464855
O      -0.025575631     1.938753356    -1.401609330
H       0.767044202     1.398824120    -1.564464855
H       0.026360801     2.172466802    -0.458369503
O       0.108400323     1.990591227     1.465229212
H       0.846786844     1.330292858     1.530451974
H       0.310345199     2.703539698     2.076240160
O      -1.990591227     0.108400323    -1.465229212
H      -1.330292858     0.846786844    -1.530451974
H      -2.703539698     0.310345199    -2.076240160
O       1.938753356     0.025575631     1.401609330
H       2.172466802    -0.026360801     0.458369503
H       1.398824120    -0.767044202     1.564464855