18
0 1 def2QZVP-WATER27
O       1.428258146    -0.400367156     1.410658542
H       0.496286929    -0.731172336     1.526604385
H       1.934661580    -0.702716315     2.168276124
O       0.737291876     1.989317312    -0.069513190
H       1.063708775     1.445797716     0.665245121
H       1.098946457     1.538598129    -0.844810783
O       1.625551042    -0.526089230    -1.363332247
H       2.354616802    -0.952844472    -1.820267121
H       1.765646736    -0.666751574    -0.406866260
O      -1.917462800     1.245484771    -0.075884731
H      -1.019528314     1.645339902    -0.086130451
H      -2.543550808     1.968475531    -0.161543193
O      -1.203787180    -1.311199373    -1.377411088
H      -0.271780813    -1.129249897    -1.575579503
H      -1.609014251    -0.436397508    -1.282335625
O      -1.131577767    -1.158898668     1.424313632
H      -1.191704869    -1.494189248     0.506203816
H      -1.616561541    -0.323137584     1.362372571