60
0 1 def2QZVP-WATER27
O      -0.004067480     1.937084746    -5.683749233
O      -2.008102088    -0.138542814    -5.735177954
O      -0.138542814     2.008102088     5.735177954
O      -1.937084746    -0.004067480     5.683749233
O      -1.973768567     0.022754211     2.808129690
O       1.973768567    -0.022754211     2.808129690
O      -1.968774256     0.021560781    -2.893954503
O       1.968774256    -0.021560781    -2.893954503
O       0.004067480    -1.937084746    -5.683749233
O       2.008102088     0.138542814    -5.735177954
O       0.138542814    -2.008102088     5.735177954
O       1.937084746     0.004067480     5.683749233
O       1.980931477     0.089177773    -0.044389281
O       0.022754211     1.973768567    -2.808129690
O       0.021560781     1.968774256     2.893954503
O      -0.021560781    -1.968774256     2.893954503
O      -0.089177773     1.980931477     0.044389281
O       0.089177773    -1.980931477     0.044389281
O      -0.022754211    -1.973768567    -2.808129690
O      -1.980931477    -0.089177773    -0.044389281
H      -0.795323013     1.383824390    -5.803811406
H      -0.052987832     2.253347205    -4.767225047
H      -1.330227608    -0.860567385    -5.789032006
H      -2.667229626    -0.320226959    -6.409949944
H      -0.320226959     2.667229626     6.409949944
H      -0.860567385     1.330227608     5.789032006
H      -1.383824390    -0.795323013     5.803811406
H      -2.253347205    -0.052987832     4.767225047
H      -2.367533988    -0.004905560     1.921717635
H      -1.351262179     0.781491352     2.794598010
H       2.367533988     0.004905560     1.921717635
H       1.351262179    -0.781491352     2.794598010
H      -2.293172136    -0.031614871    -3.809368769
H      -1.349650639     0.782936092    -2.887026593
H       1.349650639    -0.782936092    -2.887026593
H       2.293172136     0.031614871    -3.809368769
H       0.052987832    -2.253347205    -4.767225047
H       0.795323013    -1.383824390    -5.803811406
H       1.330227608     0.860567385    -5.789032006
H       2.667229626     0.320226959    -6.409949944
H       0.860567385    -1.330227608     5.789032006
H       0.320226959    -2.667229626     6.409949944
H       1.383824390     0.795323013     5.803811406
H       2.253347205     0.052987832     4.767225047
H       1.335722568     0.827958244    -0.042284441
H       2.352810837     0.078322242    -0.941135807
H      -0.004905560     2.367533988    -1.921717635
H       0.781491352     1.351262179    -2.794598010
H       0.782936092     1.349650639     2.887026593
H      -0.031614871     2.293172136     3.809368769
H       0.031614871    -2.293172136     3.809368769
H      -0.782936092    -1.349650639     2.887026593
H      -0.827958244     1.335722568     0.042284441
H      -0.078322242     2.352810837     0.941135807
H       0.078322242    -2.352810837     0.941135807
H       0.827958244    -1.335722568     0.042284441
H       0.004905560    -2.367533988    -1.921717635
H      -0.781491352    -1.351262179    -2.794598010
H      -2.352810837    -0.078322242    -0.941135807
H      -1.335722568    -0.827958244    -0.042284441