6
0 1 def2QZVP-WATER27
O      -1.330506561     0.999074204     0.000000000
H      -1.063545556     1.921087279     0.000000000
H      -0.505132621     0.491942164     0.000000000
O       1.005214438    -0.751268258     0.000000000
H       0.946985150    -1.330417694    -0.765575241
H       0.946985150    -1.330417694     0.765575241