22
1 1 def2QZVP-WATER27
O       1.843413431    -0.959600327    -1.486771960
H       1.265673696    -0.739123149    -2.234918002
O       1.079330621    -0.527185410     1.028200910
H       1.401928520    -0.701783105     0.106999289
O       0.000000000     0.000000000    -3.511899910
O      -1.843413431     0.959600327    -1.486771960
H      -1.265673696     0.739123149    -2.234918002
O      -1.079330621     0.527185410     1.028200910
H      -1.401928520     0.701783105     0.106999289
H       0.000000000     0.000000000     1.033447078
H      -2.366676209     1.724472734    -1.741820691
H       2.366676209    -1.724472734    -1.741820691
H      -1.770016220     0.033549645     1.531531184
H       1.770016220    -0.033549645     1.531531184
O      -2.991412055    -0.724108057     2.442482133
O       2.991412055     0.724108057     2.442482133
H       0.433421858     0.636554916    -4.094039476
H      -0.433421858    -0.636554916    -4.094039476
H      -3.179791893    -1.665313771     2.501141094
H      -3.435269016    -0.305906200     3.186421936
H       3.435269016     0.305906200     3.186421936
H       3.179791893     1.665313771     2.501141094