13
1 1 def2QZVP-WATER27
O       0.448855256     2.450661137    -0.112838024
H       0.536564492     3.108236595     0.585836722
H       0.958736765     2.767860965    -0.865725037
O      -2.346762429    -0.836610514    -0.112838024
H      -2.876406293    -0.553640088    -0.865725037
H      -2.960094098    -1.089439817     0.585836722
O       1.897907173    -1.614050623    -0.112838024
H       2.423529606    -2.018796778     0.585836722
H       1.917669527    -2.214220877    -0.865725037
O       0.000000000     0.000000000     0.498037226
H       0.720673824    -0.658645222     0.226713930
H       0.210066582     0.953444450     0.226713930
H      -0.930740406    -0.294799229     0.226713930