7
1 1 def2QZVP-WATER27
O      -1.199728195     0.029020103     0.115747054
H      -1.631424239    -0.733319976     0.528406495
H      -1.694001867     0.295623657    -0.672422532
O       1.199728195    -0.029020103     0.115747054
H       0.000000000     0.000000000     0.056537967
H       1.694001867    -0.295623657    -0.672422532
H       1.631424239     0.733319976     0.528406495