60
0 1 def2QZVP-WATER27
O      -0.467433700    -1.415643339     2.342483353
H      -0.510388151    -0.532778583     2.738351104
H      -1.154371099    -1.413542009     1.639060372
O      -1.180495350    -4.411489305    -2.021788012
H      -1.600595262    -5.080499854    -2.568406278
H      -1.629659063    -4.444349476    -1.130692277
O      -0.389082227    -4.341618973     2.364921873
H      -0.412231868    -3.425437666     2.678029952
H       0.495447078    -4.451681496     1.976641272
O      -2.370827174    -1.401074898     0.331738785
H      -2.768705546    -0.519060443     0.376439316
H      -1.900813401    -1.431277739    -0.531456100
O      -1.041221556    -1.577342983    -2.089864944
H      -0.074095168    -1.547857803    -1.918297769
H      -1.221082851    -2.502889500    -2.333427081
O       1.640303271    -4.351985113    -1.603096930
H       0.690763773    -4.479118117    -1.786460136
H       1.823442896    -3.433249037    -1.854859248
O      -2.332464133    -4.319111172     0.371066316
H      -1.674916644    -4.416150195     1.094567377
H      -2.663344253    -3.413059716     0.458713569
O       1.678740222    -1.467658060    -1.589549940
H       1.804249215    -1.468380950    -0.613522212
H       1.969128540    -0.592186195    -1.887104629
O       2.017778962    -1.570024543     1.145733718
H       1.134326336    -1.536778402     1.576431661
H       2.318716770    -2.489902510     1.254194211
O       2.182462386    -4.393074454     1.031173675
H       2.855435066    -5.046347213     1.238449501
H       2.003112781    -4.462731136     0.057370887
O      -0.415240088     4.384250828     2.287614001
H      -0.567983473     5.065370397     2.947930590
H      -1.112770178     4.487654390     1.603826561
O      -1.104661448     1.276004248    -2.078680934
H      -1.273793553     0.386058493    -2.427892884
H      -1.542139911     1.297394239    -1.198465729
O      -0.334341756     1.482161114     2.315783852
H       0.534803559     1.410140222     1.860663699
H      -0.379716227     2.398601101     2.629491491
O      -2.274991512     4.376894887     0.233996052
H      -1.798851808     4.346289726    -0.642755163
H      -2.981256672     5.021348626     0.137147879
O      -0.993382355     4.143164711    -2.084362844
H      -0.029885167     4.270106794    -2.002274892
H      -1.108788408     3.221619504    -2.368804112
O       1.634438711     1.395428952    -1.691828963
H       0.663806123     1.360846211    -1.841299567
H       1.893681298     2.307680738    -1.904029909
O      -2.321508593     1.478516384     0.392926597
H      -2.625009302     2.400108931     0.387831287
H      -1.619261343     1.452531933     1.081205706
O       1.814541596     4.249110104    -1.649936092
H       2.402091053     4.890029832    -2.058514014
H       1.980937560     4.284310345    -0.672115524
O       2.169295096     4.132017220     1.012479495
H       2.381020002     3.201111634     1.193355060
H       1.337286922     4.300834225     1.486627938
O       2.095810924     1.269599608     1.022726745
H       2.418326613     0.376852613     1.228475901
H       1.935362489     1.270262868     0.052036387