17
-1 1 def2QZVP-WATER27
H       1.501277547    -0.388198717    -0.068744300
H       0.069544986    -2.003145153    -0.093697420
H      -1.297487013    -0.375853507     0.320736012
O       0.093992257     1.974966471    -1.170230971
O       1.937020560    -0.243457963    -0.953572635
O      -0.155523210    -2.513446218    -0.910740344
O      -1.961692502    -0.060019658    -0.328931937
H       0.775718626     1.282418651    -1.265048374
H       1.561487559    -0.972249114    -1.462769730
H      -0.948701393    -2.048714485    -1.203638692
H      -1.471823278     0.633693782    -0.799796281
O       0.333005264    -0.718435926     1.140086155
H       0.554923410    -1.189018780     1.946559548
O      -0.112411299     1.819087906     1.734214962
H       0.084517557     2.134098505    -0.209161584
H      -1.073600897     1.822590146     1.748315552
H       0.109751827     0.845684058     1.576420038