10
1 1 def2QZVP-WATER27
O       0.427711690     0.167194626     2.099489216
H       0.910222565    -0.513736429     2.580987154
H       0.202663125     0.868802883     2.721137617
O       0.427711690     0.167194626    -2.099489216
H       0.910222565    -0.513736429    -2.580987154
H       0.202663125     0.868802883    -2.721137617
O      -0.892666654    -0.107071983     0.000000000
H      -0.340915242    -0.042131328     0.880690779
H      -0.340915242    -0.042131328    -0.880690779
H      -1.506697623    -0.853187521     0.000000000