8
0 1 def2QZVP
C       0.009609000     1.083889000     0.000000000
H       0.008064000     2.178559000     0.000000000
H       0.012015000    -0.765088000     0.779563000
H       0.012015000    -0.765088000    -0.779563000
O       0.062036000    -1.614422000     0.000000000
H      -0.739782000    -2.148850000     0.000000000
O       0.009609000     0.494532000     1.119376000
O       0.009609000     0.494532000    -1.119376000