11
0 1 def2QZVP
C      -1.147023000    -0.060526000    -0.121815000
H      -2.134819000    -0.167574000    -0.565012000
C      -0.522138000     1.209330000     0.056577000
H      -0.238953000     1.414979000     1.089381000
H       0.701158000     0.874370000    -0.232319000
H      -1.049477000     2.046300000    -0.385683000
H       0.610954000    -0.944272000     0.207650000
O       1.751291000     0.015250000     0.013282000
H       2.303847000    -0.151394000    -0.756782000
N      -0.473182000    -1.147997000     0.139934000
H      -0.875795000    -2.051257000    -0.051606000