7
0 1 def2QZVP
C       0.000000000     0.441567000     0.000000000
H      -0.160761000     1.511265000     0.000000000
O      -1.190786000    -0.218672000     0.000000000
C       1.211912000    -0.100389000     0.000000000
H       1.366272000    -1.172267000     0.000000000
H       2.084631000     0.533570000     0.000000000
H      -1.035326000    -1.170266000     0.000000000