6
0 1 def2QZVP
C       0.000000000     0.767849000     0.000000000
H      -0.822901000     1.486989000     0.000000000
H       1.367800000     2.070612000     0.000000000
H       0.602469000    -1.464838000     0.000000000
N       1.228728000     1.061969000     0.000000000
S      -0.609279000    -0.883352000     0.000000000