7
0 1 def2QZVP
C       0.468987000     0.636874000     0.053256000
H       0.585413000     1.716908000     0.037321000
C       1.515535000    -0.285885000    -0.030947000
H       1.542575000    -1.062299000     0.729004000
H       0.301002000    -1.075601000    -0.411970000
H       2.498769000    -0.002264000    -0.395534000
S      -1.052181000    -0.105168000    -0.005792000