8
0 1 def2QZVP
C      -0.077016000     0.551986000     0.027408000
H      -0.238295000     1.625354000     0.118269000
C       1.139606000    -0.193208000    -0.031496000
H       1.355044000    -0.698094000     0.908034000
H      -0.073907000    -1.134900000    -0.245811000
H       2.028949000     0.223228000    -0.494171000
N      -1.065094000    -0.300004000    -0.078808000
H      -1.991673000    -0.068229000     0.289860000