7
0 1 def2QZVP
C      -0.122877000     0.390310000    -0.000787000
H      -0.118122000     1.483913000    -0.004726000
N      -1.171301000    -0.329866000     0.010781000
H      -2.008655000     0.241760000     0.002981000
H       1.213885000    -1.140955000     0.095493000
N       1.132820000    -0.147882000    -0.053220000
H       1.919523000     0.417657000     0.208046000