9
0 1 def2QZVP
C      -1.094908000    -0.109878000     0.013862000
H      -2.177815000    -0.240734000     0.034061000
O      -0.383756000    -1.176409000     0.002027000
H      -1.174996000     1.865664000     0.005092000
H       0.722755000     0.879763000    -0.019176000
H       0.737132000    -0.773021000    -0.023569000
O       1.648136000     0.090485000    -0.099401000
N      -0.552711000     1.073193000     0.003236000
H       2.216305000     0.102634000     0.676761000