8
0 1 def2QZVP
C      -0.069675000     0.426757000    -0.000517000
H      -0.029832000     1.509908000    -0.008099000
C      -1.249182000    -0.196033000     0.013868000
H      -1.330339000    -1.275694000     0.016609000
H      -2.164964000     0.373561000     0.006734000
H       1.220598000    -1.153069000     0.137248000
N       1.181782000    -0.169417000    -0.079545000
H       1.945210000     0.346868000     0.324216000