6
0 1 def2QZVP
C       0.000000000     0.795941000     0.000000000
H      -0.540816000     1.737347000     0.000000000
H       1.895243000     1.494019000     0.000000000
H       0.964887000    -0.685634000     0.000000000
N       1.289621000     0.676359000     0.000000000
S      -0.709166000    -0.753493000     0.000000000