6
0 1 def2QZVP
C       0.000000000     0.509558000     0.000000000
H       0.037758000     1.595479000     0.000000000
O      -1.099586000    -0.147769000     0.000000000
H       1.969129000    -0.087220000     0.000000000
H      -0.131827000    -1.064473000     0.000000000
N       0.988804000    -0.331283000     0.000000000