20
0 1 def2QZVP
C       0.232504000    -1.307717000     0.000000000
P      -0.047541000     0.400165000     0.000000000
B       1.634293000    -1.852407000     0.000000000
B      -1.004266000    -2.167643000     0.000000000
H       1.801982000    -3.035602000     0.000000000
H       2.605525000    -1.143606000     0.000000000
H      -2.112189000    -1.687720000     0.000000000
H      -0.911533000    -3.358059000     0.000000000
C      -1.004266000     0.964428000     1.433058000
H      -1.212175000     2.032240000     1.371085000
H      -1.937978000     0.404730000     1.460173000
H      -0.437393000     0.746152000     2.336702000
C      -1.004266000     0.964428000    -1.433058000
H      -1.212175000     2.032240000    -1.371085000
H      -0.437393000     0.746152000    -2.336702000
H      -1.937978000     0.404730000    -1.460173000
C       1.455219000     1.404667000     0.000000000
H       1.187047000     2.460425000     0.000000000
H       2.046050000     1.170629000     0.883196000
H       2.046050000     1.170629000    -0.883196000