7
0 1 def2QZVP
C      -0.058750000     0.891443000     0.000000000
N      -0.058750000    -0.652682000     0.000000000
H       0.545438000     1.145591000     0.877962000
H       0.545438000     1.145591000    -0.877962000
H      -0.582797000    -0.961689000    -0.812097000
H      -0.582797000    -0.961689000     0.812097000
H       0.838462000    -1.147683000     0.000000000