6
0 1 def2QZVP
C       0.270019000     1.527021000     0.000000000
H      -0.427209000     2.350366000     0.000000000
H       1.340088000     1.658984000     0.000000000
S      -0.462083000     0.117446000     0.000000000
F       0.270019000    -0.836145000     1.121497000
F       0.270019000    -0.836145000    -1.121497000