7
0 1 def2QZVP
C      -0.490383000     1.663527000     0.000000000
P      -0.024764000     0.116191000     0.000000000
H      -0.502339000     2.193755000     0.937358000
H      -0.502339000     2.193755000    -0.937358000
F      -0.490383000    -0.698790000    -1.233203000
F      -0.490383000    -0.698790000     1.233203000
F       1.460593000    -0.392593000     0.000000000