10
0 1 def2QZVP
C      -0.149930000    -1.036667000     0.000000000
S       0.568955000     0.424355000     0.000000000
F      -0.149930000     1.309518000     1.144548000
F      -0.149930000     1.309518000    -1.144548000
B      -1.678800000    -1.201068000     0.000000000
H      -2.125040000    -2.302109000     0.000000000
H      -2.396006000    -0.252602000     0.000000000
B       0.939434000    -2.106063000     0.000000000
H       0.619452000    -3.250304000     0.000000000
H       2.093461000    -1.800331000     0.000000000