20
0 1 def2QZVP
C       0.249623000    -1.000621000     0.000000000
N      -0.094789000     0.482138000     0.000000000
B       1.667392000    -1.466388000     0.000000000
B      -0.896849000    -1.958575000     0.000000000
H       1.840090000    -2.646513000     0.000000000
H       2.635477000    -0.757942000     0.000000000
H      -2.053271000    -1.615407000     0.000000000
H      -0.663225000    -3.126710000     0.000000000
C      -0.896849000     0.815670000     1.210983000
H      -1.147654000     1.876802000     1.196420000
H      -1.794038000     0.206451000     1.201647000
H      -0.295020000     0.570767000     2.081354000
C      -0.896849000     0.815670000    -1.210983000
H      -1.147654000     1.876802000    -1.196420000
H      -0.295020000     0.570767000    -2.081354000
H      -1.794038000     0.206451000    -1.201647000
C       1.104771000     1.355468000     0.000000000
H       0.773356000     2.393059000     0.000000000
H       1.693810000     1.139105000     0.884956000
H       1.693810000     1.139105000    -0.884956000