11
0 1 def2QZVP
C       0.296458000    -1.227121000     0.000000000
P      -0.072747000     0.387825000     0.000000000
B      -0.923960000    -2.135438000     0.000000000
B       1.752272000    -1.656814000     0.000000000
F      -0.923960000     0.932513000     1.173739000
F      -0.923960000     0.932513000    -1.173739000
F       1.107056000     1.379315000     0.000000000
H      -0.761515000    -3.313491000     0.000000000
H      -2.035184000    -1.691082000     0.000000000
H       2.644666000    -0.865229000     0.000000000
H       1.990716000    -2.822652000     0.000000000