6
0 1 def2QZVP
C      -1.155026000     0.062022000    -0.056228000
H      -1.634859000    -0.894987000     0.070563000
H      -1.608464000     0.947394000     0.359619000
S       0.499576000    -0.105293000    -0.029245000
H       1.160471000     0.334327000     1.104284000
H       1.019791000     0.925828000    -0.729169000