16
0 1 def2QZVP
C       1.809184000     0.260190000     0.000000000
P       0.150871000     0.001558000     0.000000000
H       2.338272000     0.062089000     0.923680000
H       2.338272000     0.062089000    -0.923680000
C      -0.613282000     0.751370000    -1.463964000
C      -0.613282000     0.751370000     1.463964000
C      -0.613282000    -1.676752000     0.000000000
H      -1.680384000     0.537421000    -1.500228000
H      -0.441483000     1.824867000    -1.442853000
H      -0.135094000     0.336296000    -2.350876000
H      -1.703681000    -1.633379000     0.000000000
H      -0.269018000    -2.214200000    -0.883416000
H      -0.269018000    -2.214200000     0.883416000
H      -1.680384000     0.537421000     1.500228000
H      -0.135094000     0.336296000     2.350876000
H      -0.441483000     1.824867000     1.442853000