11
0 1 def2QZVP
C       0.334870000     0.927377000     0.000000000
N       0.027628000    -0.365887000     0.000000000
B       0.371240000     1.633256000     1.370317000
B       0.371240000     1.633256000    -1.370317000
F       0.371240000    -1.123242000    -1.077324000
F      -1.572738000    -0.755100000     0.000000000
F       0.371240000    -1.123242000     1.077324000
H       0.680857000     2.777604000     1.364712000
H       0.097803000     1.061713000     2.371241000
H       0.097803000     1.061713000    -2.371241000
H       0.680857000     2.777604000    -1.364712000