11
0 1 def2QZVP
H       1.178821000     1.847011000     0.000000000
P      -0.032562000     1.133079000     0.000000000
C       0.034611000    -0.587719000     0.000000000
H      -0.678574000     1.706845000     1.101273000
H      -0.678574000     1.706845000    -1.101273000
B       0.034611000    -1.259012000     1.348844000
B       0.034611000    -1.259012000    -1.348844000
H      -0.045744000    -0.622367000     2.365816000
H      -0.045744000    -0.622367000    -2.365816000
H       0.102228000    -2.447856000     1.414943000
H       0.102228000    -2.447856000    -1.414943000